<?xml version="1.0" encoding="UTF-8"?>

<!-- generated on 2026-04-15 10:11:33.136432 by Eclipse SUMO randomTrips.py v1.26.0
<configuration>
    <net-file value="result/report_top12_seed4_2h/sumo_nets/cw_71666/network.net.xml"/>
    <output-trip-file value="result/report_top12_seed4_2h/sumo_nets/cw_71666/routes_seed43.trips.xml"/>
    <route-file value="result/report_top12_seed4_2h/sumo_nets/cw_71666/routes_seed43.rou.xml"/>
    <vehicle-class value="passenger"/>
    <seed value="43"/>
    <end value="1800.0"/>
    <period value="5.351655859632119"/>
</configuration>
-->

<routes xmlns:xsi="http://www.w3.org/2001/XMLSchema-instance" xsi:noNamespaceSchemaLocation="http://sumo.dlr.de/xsd/routes_file.xsd">
    <vType id="passenger" vClass="passenger"/>
    <trip id="0" depart="0.00" from="-117914348#0" to="381447836#2" type="passenger"/>
    <trip id="1" depart="5.35" from="-381447829#0" to="-913009312#7" type="passenger"/>
    <trip id="2" depart="10.70" from="381447835#3" to="381452175#1" type="passenger"/>
    <trip id="3" depart="16.05" from="-913009312#5" to="117914343#0" type="passenger"/>
    <trip id="4" depart="21.41" from="-117914343#0" to="-913009312#3" type="passenger"/>
    <trip id="5" depart="26.76" from="-420331827" to="420319848#2" type="passenger"/>
    <trip id="6" depart="32.11" from="117914352#0" to="381452160" type="passenger"/>
    <trip id="7" depart="37.46" from="-913009312#2" to="-381447836#3" type="passenger"/>
    <trip id="8" depart="42.81" from="420331825#0" to="420317544#1" type="passenger"/>
    <trip id="9" depart="48.16" from="-420331830" to="-218773868#3" type="passenger"/>
    <trip id="10" depart="53.52" from="117914343#2" to="1126339777#1" type="passenger"/>
    <trip id="11" depart="58.87" from="381452175#0" to="244215399" type="passenger"/>
    <trip id="12" depart="64.22" from="117914343#2" to="218773868#1" type="passenger"/>
    <trip id="13" depart="69.57" from="-420331830" to="-117914348#2" type="passenger"/>
    <trip id="14" depart="74.92" from="-117914351#0" to="913009312#2" type="passenger"/>
    <trip id="15" depart="80.27" from="420319848#0" to="-420317544#0" type="passenger"/>
    <trip id="16" depart="85.63" from="420331830" to="117914348#0" type="passenger"/>
    <trip id="17" depart="90.98" from="-218773868#3" to="420331825#1" type="passenger"/>
    <trip id="18" depart="96.33" from="244215552#0" to="913009311" type="passenger"/>
    <trip id="19" depart="101.68" from="381447836#0" to="-218773868#3" type="passenger"/>
    <trip id="20" depart="107.03" from="381447829#0" to="381452175#0" type="passenger"/>
    <trip id="21" depart="112.38" from="420331831" to="-420319848#1" type="passenger"/>
    <trip id="22" depart="117.74" from="117914348#2" to="381447836#2" type="passenger"/>
    <trip id="23" depart="123.09" from="-381447834#1" to="420319848#2" type="passenger"/>
    <trip id="24" depart="128.44" from="381452175#1" to="-117914348#2" type="passenger"/>
    <trip id="25" depart="133.79" from="244215552#1" to="-420331825#4" type="passenger"/>
    <trip id="26" depart="139.14" from="-381447836#3" to="244215552#1" type="passenger"/>
    <trip id="27" depart="144.49" from="913009312#7" to="117914351#2" type="passenger"/>
    <trip id="28" depart="149.85" from="-244215399" to="1126339777#1" type="passenger"/>
    <trip id="29" depart="155.20" from="381452175#1" to="913009312#4" type="passenger"/>
    <trip id="30" depart="160.55" from="381452106" to="-117914348#1" type="passenger"/>
    <trip id="31" depart="165.90" from="913009312#6" to="244215399" type="passenger"/>
    <trip id="32" depart="171.25" from="-218773868#0" to="-381447829#0" type="passenger"/>
    <trip id="33" depart="176.60" from="-218773868#1" to="381447835#0" type="passenger"/>
    <trip id="34" depart="181.96" from="-381447833#1" to="420317543#0" type="passenger"/>
    <trip id="35" depart="187.31" from="-218773868#4" to="117914348#2" type="passenger"/>
    <trip id="36" depart="192.66" from="-913009312#4" to="-117914348#0" type="passenger"/>
    <trip id="37" depart="198.01" from="-1126339777#0" to="420335669" type="passenger"/>
    <trip id="38" depart="203.36" from="913009312#8" to="-381447827" type="passenger"/>
    <trip id="39" depart="208.71" from="381452122#3" to="913009312#9" type="passenger"/>
    <trip id="40" depart="214.07" from="520307306" to="420331827" type="passenger"/>
    <trip id="41" depart="219.42" from="-420319848#2" to="381452104#1" type="passenger"/>
    <trip id="42" depart="224.77" from="117914343#0" to="913009312#1" type="passenger"/>
    <trip id="43" depart="230.12" from="381452104#0" to="420319848#1" type="passenger"/>
    <trip id="44" depart="235.47" from="420331825#1" to="-420331831" type="passenger"/>
    <trip id="45" depart="240.82" from="381452106" to="-218773868#3" type="passenger"/>
    <trip id="46" depart="246.18" from="-381452104#2" to="913009312#1" type="passenger"/>
    <trip id="47" depart="251.53" from="-601902513#0" to="381447835#3" type="passenger"/>
    <trip id="48" depart="256.88" from="218773868#3" to="-381452175#1" type="passenger"/>
    <trip id="49" depart="262.23" from="244215552#1" to="520307306" type="passenger"/>
    <trip id="50" depart="267.58" from="-420319848#0" to="-420331825#1" type="passenger"/>
    <trip id="51" depart="272.93" from="-381447836#3" to="-381447836#3" type="passenger"/>
    <trip id="52" depart="278.29" from="420319844" to="381447836#3" type="passenger"/>
    <trip id="53" depart="283.64" from="913009312#6" to="381447835#1" type="passenger"/>
    <trip id="54" depart="288.99" from="913009312#5" to="-381452132" type="passenger"/>
    <trip id="55" depart="294.34" from="-381447836#3" to="-381452122#3" type="passenger"/>
    <trip id="56" depart="299.69" from="-420331831" to="913009312#9" type="passenger"/>
    <trip id="57" depart="305.04" from="-381452122#3" to="-913009312#7" type="passenger"/>
    <trip id="58" depart="310.40" from="-117914351#0" to="-117914343#2" type="passenger"/>
    <trip id="59" depart="315.75" from="117914351#2" to="381447817#0" type="passenger"/>
    <trip id="60" depart="321.10" from="117914343#2" to="601902513#0" type="passenger"/>
    <trip id="61" depart="326.45" from="420331825#1" to="913009312#3" type="passenger"/>
    <trip id="62" depart="331.80" from="218773868#3" to="-381452175#1" type="passenger"/>
    <trip id="63" depart="337.15" from="-381447817#1" to="381452167" type="passenger"/>
    <trip id="64" depart="342.51" from="-381447833#1" to="-1126339777#0" type="passenger"/>
    <trip id="65" depart="347.86" from="381452104#0" to="-381447827" type="passenger"/>
    <trip id="66" depart="353.21" from="-913009312#1" to="-117914343#0" type="passenger"/>
    <trip id="67" depart="358.56" from="-420331830" to="-420319848#0" type="passenger"/>
    <trip id="68" depart="363.91" from="-381452174#1" to="-381447831" type="passenger"/>
    <trip id="69" depart="369.26" from="218773868#3" to="381447836#0" type="passenger"/>
    <trip id="70" depart="374.62" from="-381452104#1" to="-117914348#1" type="passenger"/>
    <trip id="71" depart="379.97" from="-381452175#0" to="381447836#2" type="passenger"/>
    <trip id="72" depart="385.32" from="-381452175#1" to="381447833#1" type="passenger"/>
    <trip id="73" depart="390.67" from="-117914352#0" to="381447836#3" type="passenger"/>
    <trip id="74" depart="396.02" from="-381447829#0" to="-381452132" type="passenger"/>
    <trip id="75" depart="401.37" from="381452110" to="-913009313#1" type="passenger"/>
    <trip id="76" depart="406.73" from="381447835#2" to="-420319840#0" type="passenger"/>
    <trip id="77" depart="412.08" from="1126339777#0" to="-913009312#5" type="passenger"/>
    <trip id="78" depart="417.43" from="601902513#0" to="381452132" type="passenger"/>
    <trip id="79" depart="422.78" from="117914352#0" to="420319848#1" type="passenger"/>
    <trip id="80" depart="428.13" from="381447818" to="381452104#2" type="passenger"/>
    <trip id="81" depart="433.48" from="117914348#0" to="218773868#1" type="passenger"/>
    <trip id="82" depart="438.84" from="-381452108#0" to="913009311" type="passenger"/>
    <trip id="83" depart="444.19" from="381447833#1" to="420317544#1" type="passenger"/>
    <trip id="84" depart="449.54" from="381447818" to="-117914343#1" type="passenger"/>
    <trip id="85" depart="454.89" from="-218773868#4" to="420331827" type="passenger"/>
    <trip id="86" depart="460.24" from="381452104#0" to="420335669" type="passenger"/>
    <trip id="87" depart="465.59" from="420331830" to="-381452167" type="passenger"/>
    <trip id="88" depart="470.95" from="913009312#9" to="381447817#0" type="passenger"/>
    <trip id="89" depart="476.30" from="381452110" to="117914348#0" type="passenger"/>
    <trip id="90" depart="481.65" from="-381452174#0" to="1126339777#0" type="passenger"/>
    <trip id="91" depart="487.00" from="-913009312#7" to="-420317544#0" type="passenger"/>
    <trip id="92" depart="492.35" from="-420319848#2" to="-913009312#4" type="passenger"/>
    <trip id="93" depart="497.70" from="-381452175#0" to="-381447833#0" type="passenger"/>
    <trip id="94" depart="503.06" from="420317543#1" to="-420331825#3" type="passenger"/>
    <trip id="95" depart="508.41" from="-420331825#4" to="381452175#0" type="passenger"/>
    <trip id="96" depart="513.76" from="381452104#0" to="-913009312#5" type="passenger"/>
    <trip id="97" depart="519.11" from="-420319840#0" to="381452175#2" type="passenger"/>
    <trip id="98" depart="524.46" from="-381452132" to="-913009312#7" type="passenger"/>
    <trip id="99" depart="529.81" from="-381452160" to="218773868#4" type="passenger"/>
    <trip id="100" depart="535.17" from="117914348#2" to="-117914348#2" type="passenger"/>
    <trip id="101" depart="540.52" from="-381447836#2" to="420331827" type="passenger"/>
    <trip id="102" depart="545.87" from="381452175#2" to="-381452122#3" type="passenger"/>
    <trip id="103" depart="551.22" from="-381447836#2" to="913009312#1" type="passenger"/>
    <trip id="104" depart="556.57" from="244215552#1" to="381452104#1" type="passenger"/>
    <trip id="105" depart="561.92" from="520307306" to="-381452175#1" type="passenger"/>
    <trip id="106" depart="567.28" from="117914343#0" to="520307306" type="passenger"/>
    <trip id="107" depart="572.63" from="-381447836#3" to="-381452175#0" type="passenger"/>
    <trip id="108" depart="577.98" from="420331827" to="420319848#1" type="passenger"/>
    <trip id="109" depart="583.33" from="117914348#0" to="-381447831" type="passenger"/>
    <trip id="110" depart="588.68" from="420319847" to="-420319840#1" type="passenger"/>
    <trip id="111" depart="594.03" from="381452174#0" to="-381452175#0" type="passenger"/>
    <trip id="112" depart="599.39" from="-381447833#1" to="381447836#0" type="passenger"/>
    <trip id="113" depart="604.74" from="-420335669" to="-420331827" type="passenger"/>
    <trip id="114" depart="610.09" from="-913009312#3" to="-913009312#7" type="passenger"/>
    <trip id="115" depart="615.44" from="-913009312#8" to="381447833#1" type="passenger"/>
    <trip id="116" depart="620.79" from="-218773868#4" to="381447835#1" type="passenger"/>
    <trip id="117" depart="626.14" from="1126339777#0" to="420317544#1" type="passenger"/>
    <trip id="118" depart="631.50" from="-420317543#0" to="381447835#0" type="passenger"/>
    <trip id="119" depart="636.85" from="-381452104#2" to="381447836#2" type="passenger"/>
    <trip id="120" depart="642.20" from="381447836#0" to="117914351#0" type="passenger"/>
    <trip id="121" depart="647.55" from="-420331825#3" to="-218773868#1" type="passenger"/>
    <trip id="122" depart="652.90" from="-420319848#1" to="-117914348#1" type="passenger"/>
    <trip id="123" depart="658.25" from="420331830" to="420319848#0" type="passenger"/>
    <trip id="124" depart="663.61" from="-381447836#3" to="381447818" type="passenger"/>
    <trip id="125" depart="668.96" from="-381452104#2" to="420331825#1" type="passenger"/>
    <trip id="126" depart="674.31" from="-601902513#1" to="-117914351#0" type="passenger"/>
    <trip id="127" depart="679.66" from="381447833#0" to="-218773868#1" type="passenger"/>
    <trip id="128" depart="685.01" from="420331830" to="913009311" type="passenger"/>
    <trip id="129" depart="690.36" from="381447827" to="-381452174#0" type="passenger"/>
    <trip id="130" depart="695.72" from="381452175#0" to="-117914348#0" type="passenger"/>
    <trip id="131" depart="701.07" from="-218773868#4" to="-420319840#0" type="passenger"/>
    <trip id="132" depart="706.42" from="-117914351#2" to="420331825#3" type="passenger"/>
    <trip id="133" depart="711.77" from="381447835#2" to="420317543#1" type="passenger"/>
    <trip id="134" depart="717.12" from="381447835#0" to="-381452132" type="passenger"/>
    <trip id="135" depart="722.47" from="-381452175#2" to="244215552#1" type="passenger"/>
    <trip id="136" depart="727.83" from="420317540" to="381447818" type="passenger"/>
    <trip id="137" depart="733.18" from="-420319840#1" to="381452175#2" type="passenger"/>
    <trip id="138" depart="738.53" from="-601902513#1" to="381447818" type="passenger"/>
    <trip id="139" depart="743.88" from="420331825#0" to="381447835#0" type="passenger"/>
    <trip id="140" depart="749.23" from="-913009312#6" to="218773868#4" type="passenger"/>
    <trip id="141" depart="754.58" from="-381452104#2" to="-913009312#3" type="passenger"/>
    <trip id="142" depart="759.94" from="420319847" to="1126339777#0" type="passenger"/>
    <trip id="143" depart="765.29" from="-117914343#0" to="420317543#1" type="passenger"/>
    <trip id="144" depart="770.64" from="-381447833#1" to="-117914343#2" type="passenger"/>
    <trip id="145" depart="775.99" from="218773868#3" to="381452167" type="passenger"/>
    <trip id="146" depart="781.34" from="-244215399" to="-913009312#5" type="passenger"/>
    <trip id="147" depart="786.69" from="-913009312#7" to="-381447827" type="passenger"/>
    <trip id="148" depart="792.05" from="381447831" to="-381452174#1" type="passenger"/>
    <trip id="149" depart="797.40" from="381447836#3" to="117914343#0" type="passenger"/>
    <trip id="150" depart="802.75" from="117914348#1" to="-381452167" type="passenger"/>
    <trip id="151" depart="808.10" from="381452174#1" to="-1126339777#1" type="passenger"/>
    <trip id="152" depart="813.45" from="-420319840#0" to="-381447817#0" type="passenger"/>
    <trip id="153" depart="818.80" from="-218773868#1" to="-1126339777#1" type="passenger"/>
    <trip id="154" depart="824.16" from="117914348#1" to="-117914352#0" type="passenger"/>
    <trip id="155" depart="829.51" from="-244215399" to="-913009312#3" type="passenger"/>
    <trip id="156" depart="834.86" from="381447835#0" to="117914352#0" type="passenger"/>
    <trip id="157" depart="840.21" from="913009311" to="420317543#1" type="passenger"/>
    <trip id="158" depart="845.56" from="913009313#1" to="-420331825#2" type="passenger"/>
    <trip id="159" depart="850.91" from="420331827" to="-420319847" type="passenger"/>
    <trip id="160" depart="856.26" from="-420317543#0" to="-913009312#2" type="passenger"/>
    <trip id="161" depart="861.62" from="-117914343#1" to="381452104#2" type="passenger"/>
    <trip id="162" depart="866.97" from="-218773868#1" to="381447817#0" type="passenger"/>
    <trip id="163" depart="872.32" from="-117914348#3" to="-913009312#2" type="passenger"/>
    <trip id="164" depart="877.67" from="-381452174#0" to="913009312#2" type="passenger"/>
    <trip id="165" depart="883.02" from="-420317544#0" to="-420331825#2" type="passenger"/>
    <trip id="166" depart="888.37" from="-420317544#1" to="-381447827" type="passenger"/>
    <trip id="167" depart="893.73" from="381447833#1" to="-420319840#0" type="passenger"/>
    <trip id="168" depart="899.08" from="-381452175#1" to="-420319844" type="passenger"/>
    <trip id="169" depart="904.43" from="-420331825#2" to="381452175#1" type="passenger"/>
    <trip id="170" depart="909.78" from="-381452108#0" to="-381447827" type="passenger"/>
    <trip id="171" depart="915.13" from="-420319848#1" to="218773868#1" type="passenger"/>
    <trip id="172" depart="920.48" from="-381452175#2" to="-381447817#1" type="passenger"/>
    <trip id="173" depart="925.84" from="-420331825#3" to="913009312#5" type="passenger"/>
    <trip id="174" depart="931.19" from="420331831" to="-913009312#5" type="passenger"/>
    <trip id="175" depart="936.54" from="-913009312#2" to="-381447836#3" type="passenger"/>
    <trip id="176" depart="941.89" from="381447835#3" to="381452104#1" type="passenger"/>
    <trip id="177" depart="947.24" from="-381452174#1" to="381447818" type="passenger"/>
    <trip id="178" depart="952.59" from="-218773868#3" to="-420319844" type="passenger"/>
    <trip id="179" depart="957.95" from="-420317543#0" to="381452175#2" type="passenger"/>
    <trip id="180" depart="963.30" from="381447827" to="117914343#2" type="passenger"/>
    <trip id="181" depart="968.65" from="-913009312#3" to="117914351#2" type="passenger"/>
    <trip id="182" depart="974.00" from="1126339777#0" to="-381452175#0" type="passenger"/>
    <trip id="183" depart="979.35" from="420319847" to="381452175#2" type="passenger"/>
    <trip id="184" depart="984.70" from="-420331831" to="-601902513#0" type="passenger"/>
    <trip id="185" depart="990.06" from="913009311" to="-117914343#1" type="passenger"/>
    <trip id="186" depart="995.41" from="381452174#1" to="-381447836#2" type="passenger"/>
    <trip id="187" depart="1000.76" from="-381447836#3" to="-420331825#1" type="passenger"/>
    <trip id="188" depart="1006.11" from="381447829#0" to="-420319847" type="passenger"/>
    <trip id="189" depart="1011.46" from="117914348#0" to="117914343#2" type="passenger"/>
    <trip id="190" depart="1016.81" from="601902513#1" to="218773868#2" type="passenger"/>
    <trip id="191" depart="1022.17" from="-381452175#1" to="381447829#0" type="passenger"/>
    <trip id="192" depart="1027.52" from="117914352#1" to="-420319840#0" type="passenger"/>
    <trip id="193" depart="1032.87" from="381452110" to="-1126339777#1" type="passenger"/>
    <trip id="194" depart="1038.22" from="913009312#9" to="420331825#3" type="passenger"/>
    <trip id="195" depart="1043.57" from="-117914351#0" to="381452104#0" type="passenger"/>
    <trip id="196" depart="1048.92" from="-381447817#1" to="913009312#9" type="passenger"/>
    <trip id="197" depart="1054.28" from="-913009312#5" to="381452122#3" type="passenger"/>
    <trip id="198" depart="1059.63" from="-381452174#0" to="381447834#0" type="passenger"/>
    <trip id="199" depart="1064.98" from="-117914343#2" to="381452175#2" type="passenger"/>
    <trip id="200" depart="1070.33" from="-381452175#0" to="-381447836#3" type="passenger"/>
    <trip id="201" depart="1075.68" from="-913009312#4" to="117914343#0" type="passenger"/>
    <trip id="202" depart="1081.03" from="-117914348#2" to="-381447836#2" type="passenger"/>
    <trip id="203" depart="1086.39" from="-420331830" to="117914351#0" type="passenger"/>
    <trip id="204" depart="1091.74" from="381452104#0" to="-381447831" type="passenger"/>
    <trip id="205" depart="1097.09" from="420319840#1" to="-420331825#3" type="passenger"/>
    <trip id="206" depart="1102.44" from="913009313#1" to="-420331827" type="passenger"/>
    <trip id="207" depart="1107.79" from="-913009312#5" to="-420331825#3" type="passenger"/>
    <trip id="208" depart="1113.14" from="-218773868#0" to="601902513#1" type="passenger"/>
    <trip id="209" depart="1118.50" from="244215552#1" to="381452160" type="passenger"/>
    <trip id="210" depart="1123.85" from="-381447833#1" to="1126339777#0" type="passenger"/>
    <trip id="211" depart="1129.20" from="-420317543#0" to="-420317540" type="passenger"/>
    <trip id="212" depart="1134.55" from="-913009312#6" to="381447836#2" type="passenger"/>
    <trip id="213" depart="1139.90" from="913009313#1" to="218773868#4" type="passenger"/>
    <trip id="214" depart="1145.25" from="420317543#0" to="913009312#3" type="passenger"/>
    <trip id="215" depart="1150.61" from="913009312#7" to="-420331825#1" type="passenger"/>
    <trip id="216" depart="1155.96" from="420319848#0" to="381447836#2" type="passenger"/>
    <trip id="217" depart="1161.31" from="-117914343#0" to="420317544#1" type="passenger"/>
    <trip id="218" depart="1166.66" from="420331831" to="420331831" type="passenger"/>
    <trip id="219" depart="1172.01" from="-420319848#2" to="381452104#2" type="passenger"/>
    <trip id="220" depart="1177.36" from="420319844" to="-913009312#5" type="passenger"/>
    <trip id="221" depart="1182.72" from="381447833#0" to="-420331830" type="passenger"/>
    <trip id="222" depart="1188.07" from="601902513#1" to="117914348#1" type="passenger"/>
    <trip id="223" depart="1193.42" from="-381452160" to="-913009312#2" type="passenger"/>
    <trip id="224" depart="1198.77" from="244215552#1" to="-420331827" type="passenger"/>
    <trip id="225" depart="1204.12" from="-420319848#0" to="381447829#0" type="passenger"/>
    <trip id="226" depart="1209.47" from="-420319840#1" to="1126339777#0" type="passenger"/>
    <trip id="227" depart="1214.83" from="-218773868#0" to="-420319847" type="passenger"/>
    <trip id="228" depart="1220.18" from="-244215399" to="-913009315" type="passenger"/>
    <trip id="229" depart="1225.53" from="-420319848#0" to="-420331827" type="passenger"/>
    <trip id="230" depart="1230.88" from="-117914343#2" to="913009312#9" type="passenger"/>
    <trip id="231" depart="1236.23" from="-381452108#0" to="-1126339777#1" type="passenger"/>
    <trip id="232" depart="1241.58" from="244215552#0" to="-117914348#0" type="passenger"/>
    <trip id="233" depart="1246.94" from="218773868#2" to="520307306" type="passenger"/>
    <trip id="234" depart="1252.29" from="-117914348#3" to="-913009313#1" type="passenger"/>
    <trip id="235" depart="1257.64" from="420319847" to="-381452172" type="passenger"/>
    <trip id="236" depart="1262.99" from="-381447818" to="-117914351#0" type="passenger"/>
    <trip id="237" depart="1268.34" from="381447836#3" to="381452167" type="passenger"/>
    <trip id="238" depart="1273.69" from="-913009312#1" to="-420331825#1" type="passenger"/>
    <trip id="239" depart="1279.05" from="913009312#9" to="-381452174#1" type="passenger"/>
    <trip id="240" depart="1284.40" from="420317543#0" to="420317543#1" type="passenger"/>
    <trip id="241" depart="1289.75" from="-913009312#5" to="381452175#0" type="passenger"/>
    <trip id="242" depart="1295.10" from="-420319848#0" to="420335669" type="passenger"/>
    <trip id="243" depart="1300.45" from="381452167" to="381447818" type="passenger"/>
    <trip id="244" depart="1305.80" from="420319848#0" to="381447835#1" type="passenger"/>
    <trip id="245" depart="1311.16" from="420331825#2" to="-420331825#2" type="passenger"/>
    <trip id="246" depart="1316.51" from="-420331827" to="913009312#2" type="passenger"/>
    <trip id="247" depart="1321.86" from="-913009312#3" to="-420319844" type="passenger"/>
    <trip id="248" depart="1327.21" from="420317543#1" to="-420331825#2" type="passenger"/>
    <trip id="249" depart="1332.56" from="-218773868#1" to="420319848#1" type="passenger"/>
    <trip id="250" depart="1337.91" from="381447818" to="-117914348#2" type="passenger"/>
    <trip id="251" depart="1343.27" from="-218773868#2" to="-420317544#0" type="passenger"/>
    <trip id="252" depart="1348.62" from="-913009312#2" to="420317543#0" type="passenger"/>
    <trip id="253" depart="1353.97" from="420317543#0" to="381452108#1" type="passenger"/>
    <trip id="254" depart="1359.32" from="381452122#3" to="117914343#2" type="passenger"/>
    <trip id="255" depart="1364.67" from="-218773868#1" to="-420331825#1" type="passenger"/>
    <trip id="256" depart="1370.02" from="381452167" to="-117914343#1" type="passenger"/>
    <trip id="257" depart="1375.38" from="-381452160" to="-117914343#0" type="passenger"/>
    <trip id="258" depart="1380.73" from="-420319848#0" to="-420319848#0" type="passenger"/>
    <trip id="259" depart="1386.08" from="117914352#0" to="-381447818" type="passenger"/>
    <trip id="260" depart="1391.43" from="381452175#2" to="420319848#0" type="passenger"/>
    <trip id="261" depart="1396.78" from="-601902513#1" to="420331827" type="passenger"/>
    <trip id="262" depart="1402.13" from="381447835#1" to="117914352#0" type="passenger"/>
    <trip id="263" depart="1407.49" from="381447833#0" to="-913009312#5" type="passenger"/>
    <trip id="264" depart="1412.84" from="-381447829#0" to="420331831" type="passenger"/>
    <trip id="265" depart="1418.19" from="-381452122#3" to="420331825#3" type="passenger"/>
    <trip id="266" depart="1423.54" from="-420331831" to="117914351#2" type="passenger"/>
    <trip id="267" depart="1428.89" from="381447827" to="-420331825#3" type="passenger"/>
    <trip id="268" depart="1434.24" from="913009313#1" to="420319848#2" type="passenger"/>
    <trip id="269" depart="1439.60" from="-420331831" to="-420331825#0" type="passenger"/>
    <trip id="270" depart="1444.95" from="420331827" to="913009312#1" type="passenger"/>
    <trip id="271" depart="1450.30" from="-420331825#3" to="-381447829#0" type="passenger"/>
    <trip id="272" depart="1455.65" from="117914351#0" to="-913009312#7" type="passenger"/>
    <trip id="273" depart="1461.00" from="-913009312#4" to="244215399" type="passenger"/>
    <trip id="274" depart="1466.35" from="-117914343#0" to="117914352#1" type="passenger"/>
    <trip id="275" depart="1471.71" from="381447836#0" to="117914351#2" type="passenger"/>
    <trip id="276" depart="1477.06" from="-1126339777#0" to="117914352#1" type="passenger"/>
    <trip id="277" depart="1482.41" from="601902513#1" to="381447835#3" type="passenger"/>
    <trip id="278" depart="1487.76" from="117914348#0" to="-420331827" type="passenger"/>
    <trip id="279" depart="1493.11" from="-381452108#0" to="-913009312#6" type="passenger"/>
    <trip id="280" depart="1498.46" from="913009312#5" to="-381447833#1" type="passenger"/>
    <trip id="281" depart="1503.82" from="381447829#0" to="117914348#1" type="passenger"/>
    <trip id="282" depart="1509.17" from="-218773868#1" to="-381452174#0" type="passenger"/>
    <trip id="283" depart="1514.52" from="-381452174#1" to="-218773868#2" type="passenger"/>
    <trip id="284" depart="1519.87" from="-218773868#2" to="420319840#0" type="passenger"/>
    <trip id="285" depart="1525.22" from="-420319840#0" to="381447835#1" type="passenger"/>
    <trip id="286" depart="1530.57" from="1126339777#1" to="117914343#2" type="passenger"/>
    <trip id="287" depart="1535.93" from="-913009312#6" to="-117914343#2" type="passenger"/>
    <trip id="288" depart="1541.28" from="-117914351#2" to="-381447827" type="passenger"/>
    <trip id="289" depart="1546.63" from="420319840#0" to="381447836#2" type="passenger"/>
    <trip id="290" depart="1551.98" from="913009312#6" to="381447836#0" type="passenger"/>
    <trip id="291" depart="1557.33" from="-381452122#3" to="218773868#2" type="passenger"/>
    <trip id="292" depart="1562.68" from="381447835#1" to="-420317543#0" type="passenger"/>
    <trip id="293" depart="1568.04" from="-601902513#1" to="381452175#2" type="passenger"/>
    <trip id="294" depart="1573.39" from="-381452104#2" to="-117914343#2" type="passenger"/>
    <trip id="295" depart="1578.74" from="420331830" to="-420331825#0" type="passenger"/>
    <trip id="296" depart="1584.09" from="381447818" to="913009312#6" type="passenger"/>
    <trip id="297" depart="1589.44" from="-381452104#0" to="-381452175#1" type="passenger"/>
    <trip id="298" depart="1594.79" from="-420319848#2" to="-420317543#0" type="passenger"/>
    <trip id="299" depart="1600.15" from="117914343#0" to="-117914343#1" type="passenger"/>
    <trip id="300" depart="1605.50" from="-381452108#0" to="-520307306" type="passenger"/>
    <trip id="301" depart="1610.85" from="-420331830" to="381447836#3" type="passenger"/>
    <trip id="302" depart="1616.20" from="913009312#4" to="-381452175#1" type="passenger"/>
    <trip id="303" depart="1621.55" from="-244215399" to="244215552#1" type="passenger"/>
    <trip id="304" depart="1626.90" from="-117914351#0" to="-913009311" type="passenger"/>
    <trip id="305" depart="1632.26" from="-381452104#0" to="420319840#0" type="passenger"/>
    <trip id="306" depart="1637.61" from="-601902513#0" to="420319840#1" type="passenger"/>
    <trip id="307" depart="1642.96" from="381447817#0" to="381452122#3" type="passenger"/>
    <trip id="308" depart="1648.31" from="381447835#2" to="381452175#0" type="passenger"/>
    <trip id="309" depart="1653.66" from="381452122#3" to="420317543#0" type="passenger"/>
    <trip id="310" depart="1659.01" from="-420335669" to="-381447836#3" type="passenger"/>
    <trip id="311" depart="1664.36" from="-381452132" to="420317544#1" type="passenger"/>
    <trip id="312" depart="1669.72" from="-244215399" to="381452167" type="passenger"/>
    <trip id="313" depart="1675.07" from="-117914348#2" to="-117914343#0" type="passenger"/>
    <trip id="314" depart="1680.42" from="381452122#3" to="381452104#2" type="passenger"/>
    <trip id="315" depart="1685.77" from="381452175#2" to="-420331825#4" type="passenger"/>
    <trip id="316" depart="1691.12" from="381447836#2" to="381452108#1" type="passenger"/>
    <trip id="317" depart="1696.47" from="-381452132" to="-381447827" type="passenger"/>
    <trip id="318" depart="1701.83" from="-117914351#0" to="-420319840#1" type="passenger"/>
    <trip id="319" depart="1707.18" from="381452175#0" to="-381452167" type="passenger"/>
    <trip id="320" depart="1712.53" from="420319847" to="381447834#0" type="passenger"/>
    <trip id="321" depart="1717.88" from="913009312#4" to="-420317540" type="passenger"/>
    <trip id="322" depart="1723.23" from="913009312#7" to="381452174#1" type="passenger"/>