<?xml version='1.0' encoding='utf-8'?>
<routes>
  <vType id="adult" vClass="pedestrian" minGap="0.25" width="0.5" length="0.25" maxSpeed="1.5" speedDev="0.1" />
  <vType id="elderly" vClass="pedestrian" minGap="0.25" width="0.5" length="0.25" maxSpeed="1.13" speedDev="0.15" color="255,0,0" />
  <person id="ped_0" depart="1.41" type="adult">
    <walk from="-381458593" to="381458586" />
  </person>
  <person id="ped_1" depart="3.50" type="adult">
    <walk from="-381458593" to="381458586" />
  </person>
  <person id="ped_2" depart="9.74" type="adult">
    <walk from="-381458593" to="381458586" />
  </person>
  <person id="ped_3" depart="10.64" type="adult">
    <walk from="-381458593" to="381458586" />
  </person>
  <person id="ped_4" depart="14.45" type="adult">
    <walk from="-381458593" to="381458586" />
  </person>
  <person id="ped_5" depart="17.85" type="adult">
    <walk from="-381458593" to="381458586" />
  </person>
  <person id="ped_6" depart="26.91" type="adult">
    <walk from="-381458593" to="381458586" />
  </person>
  <person id="ped_7" depart="32.90" type="adult">
    <walk from="-381458593" to="381458586" />
  </person>
  <person id="ped_8" depart="36.92" type="adult">
    <walk from="-381458593" to="381458586" />
  </person>
  <person id="ped_9" depart="37.95" type="adult">
    <walk from="-381458593" to="381458586" />
  </person>
  <person id="ped_10" depart="43.19" type="adult">
    <walk from="-381458593" to="381458586" />
  </person>
  <person id="ped_11" depart="44.60" type="adult">
    <walk from="-381458593" to="381458586" />
  </person>
  <person id="ped_12" depart="44.91" type="adult">
    <walk from="-381458593" to="381458586" />
  </person>
  <person id="ped_13" depart="57.14" type="adult">
    <walk from="-381458593" to="381458586" />
  </person>
  <person id="ped_14" depart="60.15" type="adult">
    <walk from="-381458593" to="381458586" />
  </person>
  <person id="ped_15" depart="60.35" type="adult">
    <walk from="-381458593" to="381458586" />
  </person>
  <person id="ped_16" depart="62.56" type="adult">
    <walk from="-381458593" to="381458586" />
  </person>
  <person id="ped_17" depart="69.59" type="adult">
    <walk from="-381458593" to="381458586" />
  </person>
  <person id="ped_18" depart="74.34" type="adult">
    <walk from="-381458593" to="381458586" />
  </person>
  <person id="ped_19" depart="89.05" type="elderly">
    <walk from="-381458593" to="381458586" />
  </person>
  <person id="ped_20" depart="91.63" type="elderly">
    <walk from="-381458593" to="381458586" />
  </person>
  <person id="ped_21" depart="100.66" type="adult">
    <walk from="-381458593" to="381458586" />
  </person>
  <person id="ped_22" depart="107.86" type="adult">
    <walk from="-381458593" to="381458586" />
  </person>
  <person id="ped_23" depart="115.33" type="adult">
    <walk from="-381458593" to="381458586" />
  </person>
  <person id="ped_24" depart="116.11" type="adult">
    <walk from="-381458593" to="381458586" />
  </person>
  <person id="ped_25" depart="118.68" type="adult">
    <walk from="-381458593" to="381458586" />
  </person>
  <person id="ped_26" depart="119.78" type="adult">
    <walk from="-381458593" to="381458586" />
  </person>
  <person id="ped_27" depart="120.76" type="adult">
    <walk from="-381458593" to="381458586" />
  </person>
  <person id="ped_28" depart="121.91" type="adult">
    <walk from="-381458593" to="381458586" />
  </person>
  <person id="ped_29" depart="132.09" type="adult">
    <walk from="-381458593" to="381458586" />
  </person>
  <person id="ped_30" depart="133.54" type="adult">
    <walk from="-381458593" to="381458586" />
  </person>
  <person id="ped_31" depart="134.37" type="adult">
    <walk from="-381458593" to="381458586" />
  </person>
  <person id="ped_32" depart="140.37" type="elderly">
    <walk from="-381458593" to="381458586" />
  </person>
  <person id="ped_33" depart="141.20" type="adult">
    <walk from="-381458593" to="381458586" />
  </person>
  <person id="ped_34" depart="142.83" type="adult">
    <walk from="-381458593" to="381458586" />
  </person>
  <person id="ped_35" depart="145.92" type="adult">
    <walk from="-381458593" to="381458586" />
  </person>
  <person id="ped_36" depart="146.92" type="adult">
    <walk from="-381458593" to="381458586" />
  </person>
  <person id="ped_37" depart="152.59" type="adult">
    <walk from="-381458593" to="381458586" />
  </person>
  <person id="ped_38" depart="154.83" type="adult">
    <walk from="-381458593" to="381458586" />
  </person>
  <person id="ped_39" depart="161.21" type="adult">
    <walk from="-381458593" to="381458586" />
  </person>
  <person id="ped_40" depart="171.92" type="adult">
    <walk from="-381458593" to="381458586" />
  </person>
  <person id="ped_41" depart="172.42" type="adult">
    <walk from="-381458593" to="381458586" />
  </person>
  <person id="ped_42" depart="173.44" type="adult">
    <walk from="-381458593" to="381458586" />
  </person>
  <person id="ped_43" depart="176.19" type="adult">
    <walk from="-381458593" to="381458586" />
  </person>
  <person id="ped_44" depart="182.78" type="elderly">
    <walk from="-381458593" to="381458586" />
  </person>
  <person id="ped_45" depart="183.36" type="elderly">
    <walk from="-381458593" to="381458586" />
  </person>
  <person id="ped_46" depart="184.50" type="adult">
    <walk from="-381458593" to="381458586" />
  </person>
  <person id="ped_47" depart="186.12" type="adult">
    <walk from="-381458593" to="381458586" />
  </person>
  <person id="ped_48" depart="187.11" type="adult">
    <walk from="-381458593" to="381458586" />
  </person>
  <person id="ped_49" depart="194.16" type="adult">
    <walk from="-381458593" to="381458586" />
  </person>
  <person id="ped_50" depart="195.66" type="elderly">
    <walk from="-381458593" to="381458586" />
  </person>
  <person id="ped_51" depart="208.60" type="adult">
    <walk from="-381458593" to="381458586" />
  </person>
  <person id="ped_52" depart="213.72" type="adult">
    <walk from="-381458593" to="381458586" />
  </person>
  <person id="ped_53" depart="218.46" type="adult">
    <walk from="-381458593" to="381458586" />
  </person>
  <person id="ped_54" depart="223.21" type="adult">
    <walk from="-381458593" to="381458586" />
  </person>
  <person id="ped_55" depart="230.72" type="adult">
    <walk from="-381458593" to="381458586" />
  </person>
  <person id="ped_56" depart="232.00" type="adult">
    <walk from="-381458593" to="381458586" />
  </person>
  <person id="ped_57" depart="236.90" type="adult">
    <walk from="-381458593" to="381458586" />
  </person>
  <person id="ped_58" depart="246.70" type="elderly">
    <walk from="-381458593" to="381458586" />
  </person>
  <person id="ped_59" depart="246.84" type="adult">
    <walk from="-381458593" to="381458586" />
  </person>
  <person id="ped_60" depart="248.81" type="adult">
    <walk from="-381458593" to="381458586" />
  </person>
  <person id="ped_61" depart="249.70" type="adult">
    <walk from="-381458593" to="381458586" />
  </person>
  <person id="ped_62" depart="254.22" type="adult">
    <walk from="-381458593" to="381458586" />
  </person>
  <person id="ped_63" depart="267.24" type="adult">
    <walk from="-381458593" to="381458586" />
  </person>
  <person id="ped_64" depart="268.47" type="adult">
    <walk from="-381458593" to="381458586" />
  </person>
  <person id="ped_65" depart="275.24" type="adult">
    <walk from="-381458593" to="381458586" />
  </person>
  <person id="ped_66" depart="281.74" type="elderly">
    <walk from="-381458593" to="381458586" />
  </person>
  <person id="ped_67" depart="285.51" type="adult">
    <walk from="-381458593" to="381458586" />
  </person>
  <person id="ped_68" depart="293.61" type="adult">
    <walk from="-381458593" to="381458586" />
  </person>
  <person id="ped_69" depart="297.32" type="elderly">
    <walk from="-381458593" to="381458586" />
  </person>
  <person id="ped_70" depart="305.21" type="adult">
    <walk from="-381458593" to="381458586" />
  </person>
  <person id="ped_71" depart="307.97" type="adult">
    <walk from="-381458593" to="381458586" />
  </person>
  <person id="ped_72" depart="312.60" type="adult">
    <walk from="-381458593" to="381458586" />
  </person>
  <person id="ped_73" depart="331.24" type="adult">
    <walk from="-381458593" to="381458586" />
  </person>
  <person id="ped_74" depart="337.69" type="elderly">
    <walk from="-381458593" to="381458586" />
  </person>
  <person id="ped_75" depart="344.16" type="elderly">
    <walk from="-381458593" to="381458586" />
  </person>
  <person id="ped_76" depart="352.46" type="adult">
    <walk from="-381458593" to="381458586" />
  </person>
  <person id="ped_77" depart="365.30" type="elderly">
    <walk from="-381458593" to="381458586" />
  </person>
  <person id="ped_78" depart="365.99" type="adult">
    <walk from="-381458593" to="381458586" />
  </person>
  <person id="ped_79" depart="371.86" type="adult">
    <walk from="-381458593" to="381458586" />
  </person>
  <person id="ped_80" depart="372.18" type="elderly">
    <walk from="-381458593" to="381458586" />
  </person>
  <person id="ped_81" depart="373.76" type="adult">
    <walk from="-381458593" to="381458586" />
  </person>
  <person id="ped_82" depart="377.44" type="adult">
    <walk from="-381458593" to="381458586" />
  </person>
  <person id="ped_83" depart="379.00" type="elderly">
    <walk from="-381458593" to="381458586" />
  </person>
  <person id="ped_84" depart="381.24" type="adult">
    <walk from="-381458593" to="381458586" />
  </person>
  <person id="ped_85" depart="387.23" type="elderly">
    <walk from="-381458593" to="381458586" />
  </person>
  <person id="ped_86" depart="407.26" type="adult">
    <walk from="-381458593" to="381458586" />
  </person>
  <person id="ped_87" depart="415.83" type="elderly">
    <walk from="-381458593" to="381458586" />
  </person>
  <person id="ped_88" depart="416.80" type="elderly">
    <walk from="-381458593" to="381458586" />
  </person>
  <person id="ped_89" depart="431.05" type="adult">
    <walk from="-381458593" to="381458586" />
  </person>
  <person id="ped_90" depart="436.62" type="adult">
    <walk from="-381458593" to="381458586" />
  </person>
  <person id="ped_91" depart="438.61" type="elderly">
    <walk from="-381458593" to="381458586" />
  </person>
  <person id="ped_92" depart="441.37" type="adult">
    <walk from="-381458593" to="381458586" />
  </person>
  <person id="ped_93" depart="441.91" type="adult">
    <walk from="-381458593" to="381458586" />
  </person>
  <person id="ped_94" depart="443.42" type="adult">
    <walk from="-381458593" to="381458586" />
  </person>
  <person id="ped_95" depart="445.88" type="adult">
    <walk from="-381458593" to="381458586" />
  </person>
  <person id="ped_96" depart="448.89" type="adult">
    <walk from="-381458593" to="381458586" />
  </person>
  <person id="ped_97" depart="452.15" type="elderly">
    <walk from="-381458593" to="381458586" />
  </person>
  <person id="ped_98" depart="453.81" type="adult">
    <walk from="-381458593" to="381458586" />
  </person>
  <person id="ped_99" depart="455.24" type="adult">
    <walk from="-381458593" to="381458586" />
  </person>
  <person id="ped_100" depart="456.80" type="adult">
    <walk from="-381458593" to="381458586" />
  </person>
  <person id="ped_101" depart="457.77" type="adult">
    <walk from="-381458593" to="381458586" />
  </person>
  <person id="ped_102" depart="468.90" type="adult">
    <walk from="-381458593" to="381458586" />
  </person>
  <person id="ped_103" depart="473.27" type="elderly">
    <walk from="-381458593" to="381458586" />
  </person>
  <person id="ped_104" depart="473.32" type="adult">
    <walk from="-381458593" to="381458586" />
  </person>
  <person id="ped_105" depart="478.99" type="elderly">
    <walk from="-381458593" to="381458586" />
  </person>
  <person id="ped_106" depart="480.06" type="adult">
    <walk from="-381458593" to="381458586" />
  </person>
  <person id="ped_107" depart="484.20" type="adult">
    <walk from="-381458593" to="381458586" />
  </person>
  <person id="ped_108" depart="491.90" type="adult">
    <walk from="-381458593" to="381458586" />
  </person>
  <person id="ped_109" depart="499.04" type="adult">
    <walk from="-381458593" to="381458586" />
  </person>
  <person id="ped_110" depart="516.22" type="elderly">
    <walk from="-381458593" to="381458586" />
  </person>
  <person id="ped_111" depart="525.99" type="adult">
    <walk from="-381458593" to="381458586" />
  </person>
  <person id="ped_112" depart="528.82" type="adult">
    <walk from="-381458593" to="381458586" />
  </person>
  <person id="ped_113" depart="531.23" type="adult">
    <walk from="-381458593" to="381458586" />
  </person>
  <person id="ped_114" depart="536.54" type="elderly">
    <walk from="-381458593" to="381458586" />
  </person>
  <person id="ped_115" depart="537.97" type="adult">
    <walk from="-381458593" to="381458586" />
  </person>
  <person id="ped_116" depart="538.61" type="adult">
    <walk from="-381458593" to="381458586" />
  </person>
  <person id="ped_117" depart="546.28" type="adult">
    <walk from="-381458593" to="381458586" />
  </person>
  <person id="ped_118" depart="547.81" type="elderly">
    <walk from="-381458593" to="381458586" />
  </person>
  <person id="ped_119" depart="550.18" type="adult">
    <walk from="-381458593" to="381458586" />
  </person>
  <person id="ped_120" depart="552.73" type="adult">
    <walk from="-381458593" to="381458586" />
  </person>
  <person id="ped_121" depart="559.81" type="adult">
    <walk from="-381458593" to="381458586" />
  </person>
  <person id="ped_122" depart="561.97" type="adult">
    <walk from="-381458593" to="381458586" />
  </person>
  <person id="ped_123" depart="581.79" type="adult">
    <walk from="-381458593" to="381458586" />
  </person>
  <person id="ped_124" depart="586.43" type="adult">
    <walk from="-381458593" to="381458586" />
  </person>
  <person id="ped_125" depart="589.12" type="adult">
    <walk from="-381458593" to="381458586" />
  </person>
  <person id="ped_126" depart="597.13" type="adult">
    <walk from="-381458593" to="381458586" />
  </person>
  <person id="ped_127" depart="605.73" type="adult">
    <walk from="-381458593" to="381458586" />
  </person>
  <person id="ped_128" depart="607.46" type="adult">
    <walk from="-381458593" to="381458586" />
  </person>
  <person id="ped_129" depart="608.01" type="adult">
    <walk from="-381458593" to="381458586" />
  </person>
  <person id="ped_130" depart="610.67" type="adult">
    <walk from="-381458593" to="381458586" />
  </person>
  <person id="ped_131" depart="611.57" type="adult">
    <walk from="-381458593" to="381458586" />
  </person>
  <person id="ped_132" depart="613.23" type="elderly">
    <walk from="-381458593" to="381458586" />
  </person>
  <person id="ped_133" depart="615.36" type="adult">
    <walk from="-381458593" to="381458586" />
  </person>
  <person id="ped_134" depart="620.41" type="adult">
    <walk from="-381458593" to="381458586" />
  </person>
  <person id="ped_135" depart="625.48" type="adult">
    <walk from="-381458593" to="381458586" />
  </person>
  <person id="ped_136" depart="625.63" type="adult">
    <walk from="-381458593" to="381458586" />
  </person>
  <person id="ped_137" depart="629.92" type="adult">
    <walk from="-381458593" to="381458586" />
  </person>
  <person id="ped_138" depart="630.93" type="adult">
    <walk from="-381458593" to="381458586" />
  </person>
  <person id="ped_139" depart="644.05" type="elderly">
    <walk from="-381458593" to="381458586" />
  </person>
  <person id="ped_140" depart="645.13" type="adult">
    <walk from="-381458593" to="381458586" />
  </person>
  <person id="ped_141" depart="651.32" type="adult">
    <walk from="-381458593" to="381458586" />
  </person>
  <person id="ped_142" depart="652.65" type="adult">
    <walk from="-381458593" to="381458586" />
  </person>
  <person id="ped_143" depart="652.98" type="adult">
    <walk from="-381458593" to="381458586" />
  </person>
  <person id="ped_144" depart="655.50" type="adult">
    <walk from="-381458593" to="381458586" />
  </person>
  <person id="ped_145" depart="660.23" type="adult">
    <walk from="-381458593" to="381458586" />
  </person>
  <person id="ped_146" depart="661.60" type="adult">
    <walk from="-381458593" to="381458586" />
  </person>
  <person id="ped_147" depart="663.46" type="adult">
    <walk from="-381458593" to="381458586" />
  </person>
  <person id="ped_148" depart="666.71" type="adult">
    <walk from="-381458593" to="381458586" />
  </person>
  <person id="ped_149" depart="668.21" type="elderly">
    <walk from="-381458593" to="381458586" />
  </person>
  <person id="ped_150" depart="671.50" type="elderly">
    <walk from="-381458593" to="381458586" />
  </person>
  <person id="ped_151" depart="672.38" type="adult">
    <walk from="-381458593" to="381458586" />
  </person>
  <person id="ped_152" depart="679.15" type="adult">
    <walk from="-381458593" to="381458586" />
  </person>
  <person id="ped_153" depart="680.93" type="adult">
    <walk from="-381458593" to="381458586" />
  </person>
  <person id="ped_154" depart="686.32" type="elderly">
    <walk from="-381458593" to="381458586" />
  </person>
  <person id="ped_155" depart="690.31" type="adult">
    <walk from="-381458593" to="381458586" />
  </person>
  <person id="ped_156" depart="698.52" type="adult">
    <walk from="-381458593" to="381458586" />
  </person>
  <person id="ped_157" depart="711.00" type="adult">
    <walk from="-381458593" to="381458586" />
  </person>
  <person id="ped_158" depart="716.49" type="adult">
    <walk from="-381458593" to="381458586" />
  </person>
  <person id="ped_159" depart="720.53" type="elderly">
    <walk from="-381458593" to="381458586" />
  </person>
  <person id="ped_160" depart="732.90" type="adult">
    <walk from="-381458593" to="381458586" />
  </person>
  <person id="ped_161" depart="736.45" type="adult">
    <walk from="-381458593" to="381458586" />
  </person>
  <person id="ped_162" depart="757.74" type="adult">
    <walk from="-381458593" to="381458586" />
  </person>
  <person id="ped_163" depart="761.15" type="elderly">
    <walk from="-381458593" to="381458586" />
  </person>
  <person id="ped_164" depart="762.98" type="adult">
    <walk from="-381458593" to="381458586" />
  </person>
  <person id="ped_165" depart="764.32" type="adult">
    <walk from="-381458593" to="381458586" />
  </person>
  <person id="ped_166" depart="767.54" type="adult">
    <walk from="-381458593" to="381458586" />
  </person>
  <person id="ped_167" depart="781.11" type="adult">
    <walk from="-381458593" to="381458586" />
  </person>
  <person id="ped_168" depart="800.97" type="adult">
    <walk from="-381458593" to="381458586" />
  </person>
  <person id="ped_169" depart="803.25" type="adult">
    <walk from="-381458593" to="381458586" />
  </person>
  <person id="ped_170" depart="806.45" type="adult">
    <walk from="-381458593" to="381458586" />
  </person>
  <person id="ped_171" depart="806.84" type="adult">
    <walk from="-381458593" to="381458586" />
  </person>
  <person id="ped_172" depart="811.54" type="adult">
    <walk from="-381458593" to="381458586" />
  </person>
  <person id="ped_173" depart="815.49" type="adult">
    <walk from="-381458593" to="381458586" />
  </person>
  <person id="ped_174" depart="818.32" type="adult">
    <walk from="-381458593" to="381458586" />
  </person>
  <person id="ped_175" depart="821.80" type="adult">
    <walk from="-381458593" to="381458586" />
  </person>
  <person id="ped_176" depart="825.46" type="adult">
    <walk from="-381458593" to="381458586" />
  </person>
  <person id="ped_177" depart="852.72" type="adult">
    <walk from="-381458593" to="381458586" />
  </person>
  <person id="ped_178" depart="858.55" type="elderly">
    <walk from="-381458593" to="381458586" />
  </person>
  <person id="ped_179" depart="860.30" type="adult">
    <walk from="-381458593" to="381458586" />
  </person>
  <person id="ped_180" depart="864.31" type="adult">
    <walk from="-381458593" to="381458586" />
  </person>
  <person id="ped_181" depart="867.43" type="adult">
    <walk from="-381458593" to="381458586" />
  </person>
  <person id="ped_182" depart="867.56" type="adult">
    <walk from="-381458593" to="381458586" />
  </person>
  <person id="ped_183" depart="868.31" type="adult">
    <walk from="-381458593" to="381458586" />
  </person>
  <person id="ped_184" depart="875.15" type="adult">
    <walk from="-381458593" to="381458586" />
  </person>
  <person id="ped_185" depart="875.67" type="elderly">
    <walk from="-381458593" to="381458586" />
  </person>
  <person id="ped_186" depart="876.46" type="adult">
    <walk from="-381458593" to="381458586" />
  </person>
  <person id="ped_187" depart="878.10" type="adult">
    <walk from="-381458593" to="381458586" />
  </person>
  <person id="ped_188" depart="880.32" type="elderly">
    <walk from="-381458593" to="381458586" />
  </person>
  <person id="ped_189" depart="886.08" type="adult">
    <walk from="-381458593" to="381458586" />
  </person>
  <person id="ped_190" depart="888.41" type="adult">
    <walk from="-381458593" to="381458586" />
  </person>
  <person id="ped_191" depart="891.93" type="adult">
    <walk from="-381458593" to="381458586" />
  </person>
  <person id="ped_192" depart="897.04" type="adult">
    <walk from="-381458593" to="381458586" />
  </person>
  <person id="ped_193" depart="899.65" type="adult">
    <walk from="-381458593" to="381458586" />
  </person>
  <person id="ped_194" depart="913.97" type="adult">
    <walk from="-381458593" to="381458586" />
  </person>
  <person id="ped_195" depart="917.44" type="adult">
    <walk from="-381458593" to="381458586" />
  </person>
  <person id="ped_196" depart="923.50" type="adult">
    <walk from="-381458593" to="381458586" />
  </person>
  <person id="ped_197" depart="923.81" type="adult">
    <walk from="-381458593" to="381458586" />
  </person>
  <person id="ped_198" depart="925.41" type="elderly">
    <walk from="-381458593" to="381458586" />
  </person>
  <person id="ped_199" depart="925.62" type="elderly">
    <walk from="-381458593" to="381458586" />
  </person>
  <person id="ped_200" depart="939.22" type="adult">
    <walk from="-381458593" to="381458586" />
  </person>
  <person id="ped_201" depart="944.86" type="elderly">
    <walk from="-381458593" to="381458586" />
  </person>
  <person id="ped_202" depart="950.23" type="adult">
    <walk from="-381458593" to="381458586" />
  </person>
  <person id="ped_203" depart="952.74" type="adult">
    <walk from="-381458593" to="381458586" />
  </person>
  <person id="ped_204" depart="961.72" type="adult">
    <walk from="-381458593" to="381458586" />
  </person>
  <person id="ped_205" depart="962.48" type="elderly">
    <walk from="-381458593" to="381458586" />
  </person>
  <person id="ped_206" depart="967.55" type="adult">
    <walk from="-381458593" to="381458586" />
  </person>
  <person id="ped_207" depart="967.83" type="adult">
    <walk from="-381458593" to="381458586" />
  </person>
  <person id="ped_208" depart="969.51" type="adult">
    <walk from="-381458593" to="381458586" />
  </person>
  <person id="ped_209" depart="973.27" type="adult">
    <walk from="-381458593" to="381458586" />
  </person>
  <person id="ped_210" depart="979.51" type="adult">
    <walk from="-381458593" to="381458586" />
  </person>
  <person id="ped_211" depart="986.71" type="adult">
    <walk from="-381458593" to="381458586" />
  </person>
  <person id="ped_212" depart="987.15" type="elderly">
    <walk from="-381458593" to="381458586" />
  </person>
  <person id="ped_213" depart="995.49" type="elderly">
    <walk from="-381458593" to="381458586" />
  </person>
  <person id="ped_214" depart="998.52" type="adult">
    <walk from="-381458593" to="381458586" />
  </person>
  <person id="ped_215" depart="1014.52" type="adult">
    <walk from="-381458593" to="381458586" />
  </person>
  <person id="ped_216" depart="1015.50" type="adult">
    <walk from="-381458593" to="381458586" />
  </person>
  <person id="ped_217" depart="1016.25" type="adult">
    <walk from="-381458593" to="381458586" />
  </person>
  <person id="ped_218" depart="1023.16" type="adult">
    <walk from="-381458593" to="381458586" />
  </person>
  <person id="ped_219" depart="1034.91" type="adult">
    <walk from="-381458593" to="381458586" />
  </person>
  <person id="ped_220" depart="1036.04" type="adult">
    <walk from="-381458593" to="381458586" />
  </person>
  <person id="ped_221" depart="1041.98" type="adult">
    <walk from="-381458593" to="381458586" />
  </person>
  <person id="ped_222" depart="1051.77" type="elderly">
    <walk from="-381458593" to="381458586" />
  </person>
  <person id="ped_223" depart="1056.96" type="elderly">
    <walk from="-381458593" to="381458586" />
  </person>
  <person id="ped_224" depart="1060.92" type="adult">
    <walk from="-381458593" to="381458586" />
  </person>
  <person id="ped_225" depart="1063.79" type="adult">
    <walk from="-381458593" to="381458586" />
  </person>
  <person id="ped_226" depart="1066.52" type="adult">
    <walk from="-381458593" to="381458586" />
  </person>
  <person id="ped_227" depart="1066.59" type="adult">
    <walk from="-381458593" to="381458586" />
  </person>
  <person id="ped_228" depart="1067.58" type="adult">
    <walk from="-381458593" to="381458586" />
  </person>
  <person id="ped_229" depart="1069.13" type="adult">
    <walk from="-381458593" to="381458586" />
  </person>
  <person id="ped_230" depart="1073.07" type="adult">
    <walk from="-381458593" to="381458586" />
  </person>
  <person id="ped_231" depart="1088.76" type="adult">
    <walk from="-381458593" to="381458586" />
  </person>
  <person id="ped_232" depart="1091.69" type="adult">
    <walk from="-381458593" to="381458586" />
  </person>
  <person id="ped_233" depart="1095.25" type="adult">
    <walk from="-381458593" to="381458586" />
  </person>
  <person id="ped_234" depart="1095.71" type="adult">
    <walk from="-381458593" to="381458586" />
  </person>
  <person id="ped_235" depart="1098.06" type="adult">
    <walk from="-381458593" to="381458586" />
  </person>
  <person id="ped_236" depart="1100.24" type="elderly">
    <walk from="-381458593" to="381458586" />
  </person>
  <person id="ped_237" depart="1110.73" type="adult">
    <walk from="-381458593" to="381458586" />
  </person>
  <person id="ped_238" depart="1119.45" type="adult">
    <walk from="-381458593" to="381458586" />
  </person>
  <person id="ped_239" depart="1121.32" type="adult">
    <walk from="-381458593" to="381458586" />
  </person>
  <person id="ped_240" depart="1122.58" type="adult">
    <walk from="-381458593" to="381458586" />
  </person>
  <person id="ped_241" depart="1123.90" type="adult">
    <walk from="-381458593" to="381458586" />
  </person>
  <person id="ped_242" depart="1124.17" type="elderly">
    <walk from="-381458593" to="381458586" />
  </person>
  <person id="ped_243" depart="1127.32" type="elderly">
    <walk from="-381458593" to="381458586" />
  </person>
  <person id="ped_244" depart="1135.78" type="adult">
    <walk from="-381458593" to="381458586" />
  </person>
  <person id="ped_245" depart="1136.32" type="adult">
    <walk from="-381458593" to="381458586" />
  </person>
  <person id="ped_246" depart="1142.91" type="adult">
    <walk from="-381458593" to="381458586" />
  </person>
  <person id="ped_247" depart="1144.02" type="adult">
    <walk from="-381458593" to="381458586" />
  </person>
  <person id="ped_248" depart="1149.25" type="elderly">
    <walk from="-381458593" to="381458586" />
  </person>
  <person id="ped_249" depart="1149.69" type="adult">
    <walk from="-381458593" to="381458586" />
  </person>
  <person id="ped_250" depart="1153.11" type="elderly">
    <walk from="-381458593" to="381458586" />
  </person>
  <person id="ped_251" depart="1157.12" type="adult">
    <walk from="-381458593" to="381458586" />
  </person>
  <person id="ped_252" depart="1157.39" type="adult">
    <walk from="-381458593" to="381458586" />
  </person>
  <person id="ped_253" depart="1161.96" type="adult">
    <walk from="-381458593" to="381458586" />
  </person>
  <person id="ped_254" depart="1162.64" type="adult">
    <walk from="-381458593" to="381458586" />
  </person>
  <person id="ped_255" depart="1164.09" type="adult">
    <walk from="-381458593" to="381458586" />
  </person>
  <person id="ped_256" depart="1164.83" type="adult">
    <walk from="-381458593" to="381458586" />
  </person>
  <person id="ped_257" depart="1171.81" type="adult">
    <walk from="-381458593" to="381458586" />
  </person>
  <person id="ped_258" depart="1179.70" type="adult">
    <walk from="-381458593" to="381458586" />
  </person>
  <person id="ped_259" depart="1180.11" type="adult">
    <walk from="-381458593" to="381458586" />
  </person>
  <person id="ped_260" depart="1180.99" type="adult">
    <walk from="-381458593" to="381458586" />
  </person>
  <person id="ped_261" depart="1187.09" type="elderly">
    <walk from="-381458593" to="381458586" />
  </person>
  <person id="ped_262" depart="1187.88" type="adult">
    <walk from="-381458593" to="381458586" />
  </person>
  <person id="ped_263" depart="1189.35" type="adult">
    <walk from="-381458593" to="381458586" />
  </person>
  <person id="ped_264" depart="1197.05" type="adult">
    <walk from="-381458593" to="381458586" />
  </person>
  <person id="ped_265" depart="1201.13" type="adult">
    <walk from="-381458593" to="381458586" />
  </person>
  <person id="ped_266" depart="1207.45" type="adult">
    <walk from="-381458593" to="381458586" />
  </person>
  <person id="ped_267" depart="1216.15" type="adult">