<?xml version="1.0" encoding="UTF-8"?>

<!-- generated on 2026-04-17 02:58:24.878340 by Eclipse SUMO randomTrips.py v1.26.0
<configuration>
    <net-file value="/Users/junlee/Desktop/2026-1/js/result/tradeoff_pet_top12_seed12_60min_20260417_025716/sumo_nets/cw_8430/network.net.xml"/>
    <output-trip-file value="/Users/junlee/Desktop/2026-1/js/result/tradeoff_pet_top12_seed12_60min_20260417_025716/sumo_nets/cw_8430/routes_seed43.trips.xml"/>
    <route-file value="/Users/junlee/Desktop/2026-1/js/result/tradeoff_pet_top12_seed12_60min_20260417_025716/sumo_nets/cw_8430/routes_seed43.rou.xml"/>
    <vehicle-class value="passenger"/>
    <seed value="43"/>
    <period value="1.7838852865440398"/>
</configuration>
-->

<routes xmlns:xsi="http://www.w3.org/2001/XMLSchema-instance" xsi:noNamespaceSchemaLocation="http://sumo.dlr.de/xsd/routes_file.xsd">
    <vType id="passenger" vClass="passenger"/>
    <trip id="0" depart="0.00" from="-218910324#0" to="381452183#1" type="passenger"/>
    <trip id="1" depart="1.78" from="-381452118#7" to="-920025287#1" type="passenger"/>
    <trip id="2" depart="3.57" from="381452183#0" to="381458603#1" type="passenger"/>
    <trip id="3" depart="5.35" from="-920025287#3" to="117770556#4" type="passenger"/>
    <trip id="4" depart="7.14" from="-218681380#3" to="-519097168#1" type="passenger"/>
    <trip id="5" depart="8.92" from="-420187962#2" to="381746325#0" type="passenger"/>
    <trip id="6" depart="10.70" from="-519097168#4" to="-381452165#1" type="passenger"/>
    <trip id="7" depart="12.49" from="381746325#1" to="381746304#0" type="passenger"/>
    <trip id="8" depart="14.27" from="-420187962#2" to="-218960891#5" type="passenger"/>
    <trip id="9" depart="16.05" from="218681380#5" to="117770556#3" type="passenger"/>
    <trip id="10" depart="17.84" from="381458603#1" to="218960891#6" type="passenger"/>
    <trip id="11" depart="19.62" from="218681380#4" to="218960891#2" type="passenger"/>
    <trip id="12" depart="21.41" from="-420187962#2" to="-218910324#2" type="passenger"/>
    <trip id="13" depart="23.19" from="-218910324#4" to="519097168#2" type="passenger"/>
    <trip id="14" depart="24.97" from="381746315" to="-381458608#1" type="passenger"/>
    <trip id="15" depart="26.76" from="420314177" to="218681380#4" type="passenger"/>
    <trip id="16" depart="28.54" from="-218960891#7" to="381746325#1" type="passenger"/>
    <trip id="17" depart="30.33" from="218960891#6" to="519097168#0" type="passenger"/>
    <trip id="18" depart="32.11" from="381452185#0" to="-218960891#5" type="passenger"/>
    <trip id="19" depart="33.89" from="381452118#6" to="381458603#0" type="passenger"/>
    <trip id="20" depart="35.68" from="420317539" to="-381746304#0" type="passenger"/>
    <trip id="21" depart="37.46" from="218910324#1" to="381452185#1" type="passenger"/>
    <trip id="22" depart="39.25" from="-381452126#1" to="381746315" type="passenger"/>
    <trip id="23" depart="41.03" from="381458608#0" to="-218910324#2" type="passenger"/>
    <trip id="24" depart="42.81" from="375125202" to="-420103662#1" type="passenger"/>
    <trip id="25" depart="44.60" from="-381452165#2" to="375125202" type="passenger"/>
    <trip id="26" depart="46.38" from="920025286" to="218910324#3" type="passenger"/>
    <trip id="27" depart="48.16" from="-381452100#1" to="117770556#3" type="passenger"/>
    <trip id="28" depart="49.95" from="381458608#0" to="520307305#1" type="passenger"/>
    <trip id="29" depart="51.73" from="381458590" to="-218910324#0" type="passenger"/>
    <trip id="30" depart="53.52" from="913722640" to="218960891#7" type="passenger"/>
    <trip id="31" depart="55.30" from="-218960891#3" to="-381452118#3" type="passenger"/>
    <trip id="32" depart="57.08" from="-218960891#4" to="381452126#0" type="passenger"/>
    <trip id="33" depart="58.87" from="-381452123#0" to="381458608#1" type="passenger"/>
    <trip id="34" depart="60.65" from="-381452100#0" to="218910324#0" type="passenger"/>
    <trip id="35" depart="62.44" from="-920025287#1" to="-218910324#0" type="passenger"/>
    <trip id="36" depart="64.22" from="-218681380#0" to="420187963" type="passenger"/>
    <trip id="37" depart="66.00" from="920025287#0" to="-381452118#3" type="passenger"/>
    <trip id="38" depart="67.79" from="381458592#4" to="920025287#2" type="passenger"/>
    <trip id="39" depart="69.57" from="458731949" to="420187962#1" type="passenger"/>
    <trip id="40" depart="71.36" from="-381746313" to="381458583#1" type="passenger"/>
    <trip id="41" depart="73.14" from="218681380#2" to="519097168#1" type="passenger"/>
    <trip id="42" depart="74.92" from="381458583#2" to="381746313" type="passenger"/>
    <trip id="43" depart="76.71" from="420103662#0" to="-420187962#3" type="passenger"/>
    <trip id="44" depart="78.49" from="381458586" to="-218960891#5" type="passenger"/>
    <trip id="45" depart="80.27" from="-381452185#2" to="519097168#1" type="passenger"/>
    <trip id="46" depart="82.06" from="-519097167#0" to="381452165#2" type="passenger"/>
    <trip id="47" depart="83.84" from="218960891#5" to="-381458593" type="passenger"/>
    <trip id="48" depart="85.63" from="218960891#7" to="458731949" type="passenger"/>
    <trip id="49" depart="87.41" from="-381746308" to="-381746313" type="passenger"/>
    <trip id="50" depart="89.19" from="-381452165#2" to="-381452165#2" type="passenger"/>
    <trip id="51" depart="90.98" from="381746311" to="381452185#2" type="passenger"/>
    <trip id="52" depart="92.76" from="913722640" to="381452126#1" type="passenger"/>
    <trip id="53" depart="94.55" from="913718470" to="-381458586" type="passenger"/>
    <trip id="54" depart="96.33" from="-381452183#0" to="-381458583#2" type="passenger"/>
    <trip id="55" depart="98.11" from="-420187963" to="920025287#3" type="passenger"/>
    <trip id="56" depart="99.90" from="-381458583#5" to="-920025287#0" type="passenger"/>
    <trip id="57" depart="101.68" from="-218910324#4" to="-218681380#5" type="passenger"/>
    <trip id="58" depart="103.47" from="218681380#5" to="519097166#0" type="passenger"/>
    <trip id="59" depart="105.25" from="420103662#0" to="519097168#4" type="passenger"/>
    <trip id="60" depart="107.03" from="218960891#5" to="-381458598" type="passenger"/>
    <trip id="61" depart="108.82" from="-381452118#3" to="381458592#4" type="passenger"/>
    <trip id="62" depart="110.60" from="-381452123#1" to="-218681380#1" type="passenger"/>
    <trip id="63" depart="112.38" from="381458583#1" to="-381452118#3" type="passenger"/>
    <trip id="64" depart="114.17" from="381452118#6" to="-381452185#2" type="passenger"/>
    <trip id="65" depart="115.95" from="-519097168#1" to="-218681380#2" type="passenger"/>
    <trip id="66" depart="117.74" from="-420187962#2" to="-381746304#0" type="passenger"/>
    <trip id="67" depart="119.52" from="-381458592#5" to="-381452118#6" type="passenger"/>
    <trip id="68" depart="121.30" from="218960891#5" to="381452183#0" type="passenger"/>
    <trip id="69" depart="123.09" from="-381452185#1" to="-218910324#1" type="passenger"/>
    <trip id="70" depart="124.87" from="-381458593" to="381452183#1" type="passenger"/>
    <trip id="71" depart="126.66" from="-381458600#0" to="381452118#7" type="passenger"/>
    <trip id="72" depart="128.44" from="-218960891#1" to="381452185#1" type="passenger"/>
    <trip id="73" depart="130.22" from="-381452118#6" to="-381458586" type="passenger"/>
    <trip id="74" depart="132.01" from="381458592#2" to="-920025287#3" type="passenger"/>
    <trip id="75" depart="133.79" from="381452123#1" to="-381458603#1" type="passenger"/>
    <trip id="76" depart="135.58" from="381452165#2" to="-381458608#1" type="passenger"/>
    <trip id="77" depart="137.36" from="117770556#3" to="-520307305#0" type="passenger"/>
    <trip id="78" depart="139.14" from="519097167#0" to="381458592#1" type="passenger"/>
    <trip id="79" depart="140.93" from="218960891#0" to="381746315" type="passenger"/>
    <trip id="80" depart="142.71" from="381452118#1" to="381458583#2" type="passenger"/>
    <trip id="81" depart="144.49" from="218681380#7" to="218960891#2" type="passenger"/>
    <trip id="82" depart="146.28" from="-381458583#1" to="519097168#0" type="passenger"/>
    <trip id="83" depart="148.06" from="381452123#1" to="381746304#0" type="passenger"/>
    <trip id="84" depart="149.85" from="381452118#0" to="-218681380#4" type="passenger"/>
    <trip id="85" depart="151.63" from="-381452100#0" to="420187962#0" type="passenger"/>
    <trip id="86" depart="153.41" from="381458583#1" to="420314177" type="passenger"/>
    <trip id="87" depart="155.20" from="420314177" to="-381458592#0" type="passenger"/>
    <trip id="88" depart="156.98" from="920025287#2" to="381452100#0" type="passenger"/>
    <trip id="89" depart="158.77" from="381458592#2" to="218681380#3" type="passenger"/>
    <trip id="90" depart="160.55" from="-381458592#4" to="117770556#1" type="passenger"/>
    <trip id="91" depart="162.33" from="-920025287#4" to="-381458608#1" type="passenger"/>
    <trip id="92" depart="164.12" from="-381746325#0" to="-519097168#4" type="passenger"/>
    <trip id="93" depart="165.90" from="-381458593" to="-381452118#7" type="passenger"/>
    <trip id="94" depart="167.69" from="-420187962#0" to="381458600#1" type="passenger"/>
    <trip id="95" depart="169.47" from="381458583#1" to="-520307305#0" type="passenger"/>
    <trip id="96" depart="171.25" from="-381746303#1" to="381458603#1" type="passenger"/>
    <trip id="97" depart="173.04" from="-381458587" to="-920025287#1" type="passenger"/>
    <trip id="98" depart="174.82" from="-420187962#2" to="920025287#4" type="passenger"/>
    <trip id="99" depart="176.60" from="-381458592#0" to="218960891#5" type="passenger"/>
    <trip id="100" depart="178.39" from="218910324#1" to="-218910324#2" type="passenger"/>
    <trip id="101" depart="180.17" from="-381452165#2" to="420187962#1" type="passenger"/>
    <trip id="102" depart="181.96" from="381741927" to="-381458583#1" type="passenger"/>
    <trip id="103" depart="183.74" from="-381452165#1" to="519097168#1" type="passenger"/>
    <trip id="104" depart="185.52" from="218960891#7" to="381458583#0" type="passenger"/>
    <trip id="105" depart="187.31" from="519097166#0" to="-381458593" type="passenger"/>
    <trip id="106" depart="189.09" from="218681380#2" to="458731949" type="passenger"/>
    <trip id="107" depart="190.88" from="-381452183#0" to="-381458592#5" type="passenger"/>
    <trip id="108" depart="192.66" from="420187962#2" to="381746313" type="passenger"/>
    <trip id="109" depart="194.44" from="218681380#5" to="-381452118#6" type="passenger"/>
    <trip id="110" depart="196.23" from="381746313" to="-381741961" type="passenger"/>
    <trip id="111" depart="198.01" from="381458600#0" to="-381458592#5" type="passenger"/>
    <trip id="112" depart="199.80" from="-381452123#0" to="381452183#0" type="passenger"/>
    <trip id="113" depart="201.58" from="-420314177" to="-420187962#1" type="passenger"/>
    <trip id="114" depart="203.36" from="-920025287#0" to="-920025287#0" type="passenger"/>
    <trip id="115" depart="205.15" from="117770556#1" to="381452118#7" type="passenger"/>
    <trip id="116" depart="206.93" from="-381452100#0" to="381452165#0" type="passenger"/>
    <trip id="117" depart="208.71" from="117770556#4" to="381746304#0" type="passenger"/>
    <trip id="118" depart="210.50" from="-381458603#1" to="381452126#0" type="passenger"/>
    <trip id="119" depart="212.28" from="-381452185#2" to="381452183#1" type="passenger"/>
    <trip id="120" depart="214.07" from="381452185#0" to="218910324#1" type="passenger"/>
    <trip id="121" depart="215.85" from="117770556#3" to="519097168#4" type="passenger"/>
    <trip id="122" depart="217.63" from="-420103662#1" to="-218960891#3" type="passenger"/>
    <trip id="123" depart="219.42" from="-381746311" to="-218910324#1" type="passenger"/>
    <trip id="124" depart="221.20" from="420314177" to="381746311" type="passenger"/>
    <trip id="125" depart="222.99" from="-381452165#2" to="381452118#1" type="passenger"/>
    <trip id="126" depart="224.77" from="-381452185#2" to="381746325#0" type="passenger"/>
    <trip id="127" depart="226.55" from="381452123#0" to="-218960891#3" type="passenger"/>
    <trip id="128" depart="228.34" from="420317539" to="519097167#1" type="passenger"/>
    <trip id="129" depart="230.12" from="381452118#3" to="-381458592#2" type="passenger"/>
    <trip id="130" depart="231.91" from="381458603#1" to="-218910324#0" type="passenger"/>
    <trip id="131" depart="233.69" from="-381452100#0" to="-381741927" type="passenger"/>
    <trip id="132" depart="235.47" from="-218960891#1" to="420103662#1" type="passenger"/>
    <trip id="133" depart="237.26" from="381452165#2" to="381741961" type="passenger"/>
    <trip id="134" depart="239.04" from="381452165#0" to="-381458586" type="passenger"/>
    <trip id="135" depart="240.82" from="-381458600#1" to="375125202" type="passenger"/>
    <trip id="136" depart="242.61" from="381741927" to="381452118#0" type="passenger"/>
    <trip id="137" depart="244.39" from="-381746304#1" to="381458608#0" type="passenger"/>
    <trip id="138" depart="246.18" from="-519097167#1" to="381452118#1" type="passenger"/>
    <trip id="139" depart="247.96" from="381746325#1" to="381452126#0" type="passenger"/>
    <trip id="140" depart="249.74" from="-920025287#4" to="218960891#5" type="passenger"/>
    <trip id="141" depart="251.53" from="-381452185#2" to="-519097168#2" type="passenger"/>
    <trip id="142" depart="253.31" from="381746313" to="117770556#1" type="passenger"/>
    <trip id="143" depart="255.10" from="-218681380#3" to="381746303#1" type="passenger"/>
    <trip id="144" depart="256.88" from="-381452123#1" to="-218681380#7" type="passenger"/>
    <trip id="145" depart="258.66" from="218960891#5" to="381458592#5" type="passenger"/>
    <trip id="146" depart="260.45" from="-381452100#1" to="-519097168#4" type="passenger"/>
    <trip id="147" depart="262.23" from="-920025287#4" to="-381452118#1" type="passenger"/>
    <trip id="148" depart="264.02" from="381452118#7" to="-381458592#5" type="passenger"/>
    <trip id="149" depart="265.80" from="381452185#2" to="218681380#1" type="passenger"/>
    <trip id="150" depart="267.58" from="218910324#0" to="-381458592#0" type="passenger"/>
    <trip id="151" depart="269.37" from="381458600#1" to="-218681380#2" type="passenger"/>
    <trip id="152" depart="271.15" from="-381746303#1" to="-218960891#7" type="passenger"/>
    <trip id="153" depart="272.93" from="-218960891#4" to="-218681380#2" type="passenger"/>
    <trip id="154" depart="274.72" from="218910324#0" to="-218960891#1" type="passenger"/>
    <trip id="155" depart="276.50" from="-381452100#1" to="-519097168#1" type="passenger"/>
    <trip id="156" depart="278.29" from="381452185#0" to="-381452185#2" type="passenger"/>
    <trip id="157" depart="280.07" from="381452165#0" to="218910324#4" type="passenger"/>
    <trip id="158" depart="281.85" from="519097168#0" to="381741961" type="passenger"/>
    <trip id="159" depart="283.64" from="420187962#3" to="-381746303#0" type="passenger"/>
    <trip id="160" depart="285.42" from="-381458603#0" to="-519097168#0" type="passenger"/>
    <trip id="161" depart="287.21" from="-218681380#4" to="381458583#2" type="passenger"/>
    <trip id="162" depart="288.99" from="-218960891#4" to="381452100#0" type="passenger"/>
    <trip id="163" depart="290.77" from="-218910324#4" to="-519097168#0" type="passenger"/>
    <trip id="164" depart="292.56" from="-381458592#2" to="519097168#2" type="passenger"/>
    <trip id="165" depart="294.34" from="-381741961" to="-381452118#3" type="passenger"/>
    <trip id="166" depart="296.12" from="381452126#0" to="-381741927" type="passenger"/>
    <trip id="167" depart="297.91" from="-381458593" to="-381741964" type="passenger"/>
    <trip id="168" depart="299.69" from="-381746451#1" to="381458603#1" type="passenger"/>
    <trip id="169" depart="301.48" from="-381458583#1" to="-381452118#3" type="passenger"/>
    <trip id="170" depart="303.26" from="-381458603#0" to="-381452100#0" type="passenger"/>
    <trip id="171" depart="305.04" from="-420103662#1" to="913717725" type="passenger"/>
    <trip id="172" depart="306.83" from="420317539" to="-520307305#0" type="passenger"/>
    <trip id="173" depart="308.61" from="-519097168#4" to="-381452165#1" type="passenger"/>
    <trip id="174" depart="310.40" from="381452183#0" to="381458583#1" type="passenger"/>
    <trip id="175" depart="312.18" from="-381458592#4" to="381452118#1" type="passenger"/>
    <trip id="176" depart="313.96" from="-218960891#7" to="-381741964" type="passenger"/>
    <trip id="177" depart="315.75" from="-381458603#1" to="381458603#1" type="passenger"/>
    <trip id="178" depart="317.53" from="381452118#5" to="218681380#2" type="passenger"/>
    <trip id="179" depart="319.32" from="-920025287#0" to="218910324#3" type="passenger"/>
    <trip id="180" depart="321.10" from="117770556#3" to="-381458593" type="passenger"/>
    <trip id="181" depart="322.88" from="381746313" to="381458608#0" type="passenger"/>
    <trip id="182" depart="324.67" from="-420187963" to="-458731949" type="passenger"/>
    <trip id="183" depart="326.45" from="519097168#1" to="-218681380#3" type="passenger"/>
    <trip id="184" depart="328.23" from="381458600#1" to="-381452165#0" type="passenger"/>
    <trip id="185" depart="330.02" from="-381452183#0" to="-381746325#0" type="passenger"/>
    <trip id="186" depart="331.80" from="381452118#6" to="-381746303#0" type="passenger"/>
    <trip id="187" depart="333.59" from="218681380#7" to="218681380#2" type="passenger"/>
    <trip id="188" depart="335.37" from="519097167#1" to="218960891#3" type="passenger"/>
    <trip id="189" depart="337.15" from="-381458593" to="381452118#3" type="passenger"/>
    <trip id="190" depart="338.94" from="218960891#1" to="-381741927" type="passenger"/>
    <trip id="191" depart="340.72" from="381458592#1" to="-218681380#1" type="passenger"/>
    <trip id="192" depart="342.51" from="920025287#2" to="420103662#1" type="passenger"/>
    <trip id="193" depart="344.29" from="-218910324#4" to="381458583#0" type="passenger"/>
    <trip id="194" depart="346.07" from="-381452118#3" to="920025287#3" type="passenger"/>
    <trip id="195" depart="347.86" from="-920025287#3" to="381458592#0" type="passenger"/>
    <trip id="196" depart="349.64" from="-381458592#4" to="381452123#0" type="passenger"/>
    <trip id="197" depart="351.43" from="-218681380#5" to="381458608#0" type="passenger"/>
    <trip id="198" depart="353.21" from="-381458593" to="-381452165#1" type="passenger"/>
    <trip id="199" depart="354.99" from="-920025287#0" to="117770556#4" type="passenger"/>
    <trip id="200" depart="356.78" from="-218910324#1" to="-381452165#0" type="passenger"/>
    <trip id="201" depart="358.56" from="-420187962#3" to="218910324#1" type="passenger"/>
    <trip id="202" depart="360.34" from="381458583#1" to="-381452118#6" type="passenger"/>
    <trip id="203" depart="362.13" from="381746304#1" to="-420103662#0" type="passenger"/>
    <trip id="204" depart="363.91" from="920025287#3" to="-420187962#0" type="passenger"/>
    <trip id="205" depart="365.70" from="-920025287#2" to="-420103662#0" type="passenger"/>
    <trip id="206" depart="367.48" from="-218960891#3" to="519097167#1" type="passenger"/>
    <trip id="207" depart="369.26" from="375125202" to="381458592#2" type="passenger"/>
    <trip id="208" depart="371.05" from="-381452123#0" to="117770556#1" type="passenger"/>
    <trip id="209" depart="372.83" from="-381458603#0" to="-381458600#0" type="passenger"/>
    <trip id="210" depart="374.62" from="-458731949" to="381452118#1" type="passenger"/>
    <trip id="211" depart="376.40" from="-920025287#3" to="381452183#1" type="passenger"/>
    <trip id="212" depart="378.18" from="920025287#2" to="218960891#5" type="passenger"/>
    <trip id="213" depart="379.97" from="381741964" to="519097168#4" type="passenger"/>
    <trip id="214" depart="381.75" from="920025286" to="-381746325#0" type="passenger"/>
    <trip id="215" depart="383.54" from="381746315" to="381452183#1" type="passenger"/>
    <trip id="216" depart="385.32" from="-218681380#3" to="381746304#0" type="passenger"/>
    <trip id="217" depart="387.10" from="420317539" to="420187962#3" type="passenger"/>
    <trip id="218" depart="388.89" from="-381746313" to="381458583#2" type="passenger"/>
    <trip id="219" depart="390.67" from="381746311" to="-520307305#0" type="passenger"/>
    <trip id="220" depart="392.45" from="381452123#0" to="-420187962#2" type="passenger"/>
    <trip id="221" depart="394.24" from="519097168#0" to="218681380#5" type="passenger"/>
    <trip id="222" depart="396.02" from="-381458592#0" to="-519097168#1" type="passenger"/>
    <trip id="223" depart="397.81" from="218960891#7" to="-420187962#1" type="passenger"/>
    <trip id="224" depart="399.59" from="-381746308" to="381452118#1" type="passenger"/>
    <trip id="225" depart="401.37" from="-381746304#1" to="117770556#2" type="passenger"/>
    <trip id="226" depart="403.16" from="-218960891#3" to="-381746303#0" type="passenger"/>
    <trip id="227" depart="404.94" from="-381452100#1" to="117770556#1" type="passenger"/>
    <trip id="228" depart="406.73" from="-381746308" to="-420187962#1" type="passenger"/>
    <trip id="229" depart="408.51" from="-218681380#5" to="920025287#3" type="passenger"/>
    <trip id="230" depart="410.29" from="-381458583#0" to="-218681380#1" type="passenger"/>
    <trip id="231" depart="412.08" from="218960891#6" to="-218910324#0" type="passenger"/>
    <trip id="232" depart="413.86" from="218960891#4" to="458731949" type="passenger"/>
    <trip id="233" depart="415.65" from="-218910324#3" to="-920025287#3" type="passenger"/>
    <trip id="234" depart="417.43" from="381746315" to="-381458592#1" type="passenger"/>
    <trip id="235" depart="419.21" from="-381452118#3" to="-218910324#3" type="passenger"/>
    <trip id="236" depart="421.00" from="381458583#0" to="381458592#4" type="passenger"/>
    <trip id="237" depart="422.78" from="-519097168#2" to="-381746325#0" type="passenger"/>
    <trip id="238" depart="424.56" from="920025287#1" to="-381458592#4" type="passenger"/>
    <trip id="239" depart="426.35" from="381741964" to="381741961" type="passenger"/>
    <trip id="240" depart="428.13" from="-920025287#3" to="381458600#1" type="passenger"/>
    <trip id="241" depart="429.92" from="-381746308" to="420187963" type="passenger"/>
    <trip id="242" depart="431.70" from="381458593" to="381452118#0" type="passenger"/>
    <trip id="243" depart="433.48" from="381746315" to="381452165#0" type="passenger"/>
    <trip id="244" depart="435.27" from="420103662#1" to="-381746325#0" type="passenger"/>
    <trip id="245" depart="437.05" from="-420187962#2" to="519097168#2" type="passenger"/>
    <trip id="246" depart="438.84" from="-519097168#4" to="-381741964" type="passenger"/>
    <trip id="247" depart="440.62" from="381746303#0" to="-381746325#0" type="passenger"/>
    <trip id="248" depart="442.40" from="-218960891#4" to="381746313" type="passenger"/>
    <trip id="249" depart="444.19" from="381452118#1" to="-218910324#1" type="passenger"/>
    <trip id="250" depart="445.97" from="-218960891#5" to="-381458608#0" type="passenger"/>
    <trip id="251" depart="447.76" from="-519097168#2" to="381458608#0" type="passenger"/>
    <trip id="252" depart="449.54" from="381741964" to="381458587" type="passenger"/>
    <trip id="253" depart="451.32" from="381458592#2" to="218681380#2" type="passenger"/>
    <trip id="254" depart="453.11" from="-218960891#4" to="-381746325#0" type="passenger"/>
    <trip id="255" depart="454.89" from="381458593" to="-218681380#4" type="passenger"/>
    <trip id="256" depart="456.67" from="-381458592#0" to="-218681380#3" type="passenger"/>
    <trip id="257" depart="458.46" from="-381746308" to="-381746303#1" type="passenger"/>
    <trip id="258" depart="460.24" from="117770556#3" to="-381452165#2" type="passenger"/>
    <trip id="259" depart="462.03" from="381741927" to="381746311" type="passenger"/>
    <trip id="260" depart="463.81" from="-519097167#1" to="420187962#1" type="passenger"/>
    <trip id="261" depart="465.59" from="381452165#1" to="218910324#4" type="passenger"/>
    <trip id="262" depart="467.38" from="381452123#0" to="-520307305#0" type="passenger"/>
    <trip id="263" depart="469.16" from="-381452118#6" to="420187963" type="passenger"/>
    <trip id="264" depart="470.95" from="-381458583#5" to="420103662#1" type="passenger"/>
    <trip id="265" depart="472.73" from="-420187962#3" to="218910324#2" type="passenger"/>
    <trip id="266" depart="474.51" from="381452118#5" to="-420103662#0" type="passenger"/>
    <trip id="267" depart="476.30" from="920025287#3" to="381746315" type="passenger"/>
    <trip id="268" depart="478.08" from="-420187963" to="-381746311" type="passenger"/>
    <trip id="269" depart="479.87" from="420187962#3" to="519097168#1" type="passenger"/>
    <trip id="270" depart="481.65" from="-420103662#1" to="-381452118#5" type="passenger"/>
    <trip id="271" depart="483.43" from="218910324#2" to="-920025287#1" type="passenger"/>
    <trip id="272" depart="485.22" from="-920025287#1" to="218960891#7" type="passenger"/>
    <trip id="273" depart="487.00" from="-218681380#2" to="218910324#5" type="passenger"/>
    <trip id="274" depart="488.78" from="381452185#1" to="218910324#3" type="passenger"/>
    <trip id="275" depart="490.57" from="519097167#1" to="381452165#1" type="passenger"/>
    <trip id="276" depart="492.35" from="218681380#5" to="-420187962#1" type="passenger"/>
    <trip id="277" depart="494.14" from="-381458583#1" to="-920025287#0" type="passenger"/>
    <trip id="278" depart="495.92" from="913718470" to="-381452123#1" type="passenger"/>
    <trip id="279" depart="497.70" from="381452118#5" to="218681380#4" type="passenger"/>
    <trip id="280" depart="499.49" from="-218960891#5" to="-381458592#2" type="passenger"/>
    <trip id="281" depart="501.27" from="-381458592#4" to="-218960891#4" type="passenger"/>
    <trip id="282" depart="503.06" from="-218960891#5" to="381746304#1" type="passenger"/>
    <trip id="283" depart="504.84" from="-381746303#1" to="381452126#1" type="passenger"/>
    <trip id="284" depart="506.62" from="117770556#4" to="218681380#3" type="passenger"/>
    <trip id="285" depart="508.41" from="-920025287#3" to="-218681380#7" type="passenger"/>
    <trip id="286" depart="510.19" from="-218960891#1" to="-381452118#3" type="passenger"/>
    <trip id="287" depart="511.98" from="381746304#0" to="381452183#1" type="passenger"/>
    <trip id="288" depart="513.76" from="913718470" to="381452183#0" type="passenger"/>
    <trip id="289" depart="515.54" from="-381458583#5" to="218960891#3" type="passenger"/>
    <trip id="290" depart="517.33" from="381452165#1" to="-381458603#0" type="passenger"/>
    <trip id="291" depart="519.11" from="-519097167#1" to="381458603#1" type="passenger"/>
    <trip id="292" depart="520.89" from="-381452185#2" to="-218681380#5" type="passenger"/>
    <trip id="293" depart="522.68" from="420317539" to="-381746311" type="passenger"/>
    <trip id="294" depart="524.46" from="381452118#1" to="920025286" type="passenger"/>
    <trip id="295" depart="526.25" from="-381452183#1" to="-381458598" type="passenger"/>
    <trip id="296" depart="528.03" from="-381746313" to="-381458603#0" type="passenger"/>
    <trip id="297" depart="529.81" from="218681380#2" to="-218681380#4" type="passenger"/>
    <trip id="298" depart="531.60" from="381746303#0" to="920025287#4" type="passenger"/>
    <trip id="299" depart="533.38" from="-381458583#1" to="-420317539" type="passenger"/>
    <trip id="300" depart="535.17" from="-420187962#2" to="381452185#1" type="passenger"/>
    <trip id="301" depart="536.95" from="-519097168#0" to="381746451#0" type="passenger"/>
    <trip id="302" depart="538.73" from="520307305#1" to="-381458598" type="passenger"/>
    <trip id="303" depart="540.52" from="-381452118#0" to="375125202" type="passenger"/>
    <trip id="304" depart="542.30" from="-218910324#4" to="-519097167#0" type="passenger"/>
    <trip id="305" depart="544.09" from="-381452183#1" to="381746304#1" type="passenger"/>
    <trip id="306" depart="545.87" from="-519097167#0" to="381746308" type="passenger"/>
    <trip id="307" depart="547.65" from="375125202" to="381458592#0" type="passenger"/>
    <trip id="308" depart="549.44" from="381452165#2" to="381458600#1" type="passenger"/>
    <trip id="309" depart="551.22" from="381458592#4" to="381458608#1" type="passenger"/>
    <trip id="310" depart="553.00" from="-420314177" to="-381452165#1" type="passenger"/>
    <trip id="311" depart="554.79" from="-381458586" to="381746303#1" type="passenger"/>
    <trip id="312" depart="556.57" from="-381452100#1" to="381458592#4" type="passenger"/>
    <trip id="313" depart="558.36" from="-218910324#1" to="-218681380#2" type="passenger"/>
    <trip id="314" depart="560.14" from="381458592#2" to="381458583#5" type="passenger"/>
    <trip id="315" depart="561.92" from="381458608#1" to="-420187962#0" type="passenger"/>
    <trip id="316" depart="563.71" from="381452185#1" to="381458586" type="passenger"/>
    <trip id="317" depart="565.49" from="-381458586" to="-381452118#1" type="passenger"/>
    <trip id="318" depart="567.28" from="-218910324#4" to="-381741961" type="passenger"/>
    <trip id="319" depart="569.06" from="381458603#1" to="-381458590" type="passenger"/>
    <trip id="320" depart="570.84" from="381746313" to="381452118#7" type="passenger"/>
    <trip id="321" depart="572.63" from="913717725" to="-381458600#1" type="passenger"/>
    <trip id="322" depart="574.41" from="920025286" to="381458600#0" type="passenger"/>
    <trip id="323" depart="576.19" from="-218910324#1" to="-381458600#1" type="passenger"/>