<?xml version="1.0" encoding="UTF-8"?>

<!-- generated on 2026-04-17 02:51:25.679901 by Eclipse SUMO randomTrips.py v1.26.0
<configuration>
    <net-file value="/Users/junlee/Desktop/2026-1/js/result/tradeoff_pet_top12_seed12_60min_20260417_024953/sumo_nets/cw_8340/network.net.xml"/>
    <output-trip-file value="/Users/junlee/Desktop/2026-1/js/result/tradeoff_pet_top12_seed12_60min_20260417_024953/sumo_nets/cw_8340/routes_seed48.trips.xml"/>
    <route-file value="/Users/junlee/Desktop/2026-1/js/result/tradeoff_pet_top12_seed12_60min_20260417_024953/sumo_nets/cw_8340/routes_seed48.rou.xml"/>
    <vehicle-class value="passenger"/>
    <seed value="48"/>
    <period value="3.893645118227507"/>
</configuration>
-->

<!-- generated on 2026-04-17T02:51:25.657931+09:00 by Eclipse SUMO duarouter 1.26.0
<duarouterConfiguration xmlns:xsi="http://www.w3.org/2001/XMLSchema-instance" xsi:noNamespaceSchemaLocation="http://sumo.dlr.de/xsd/duarouterConfiguration.xsd">

    <input>
        <net-file value="/Users/junlee/Desktop/2026-1/js/result/tradeoff_pet_top12_seed12_60min_20260417_024953/sumo_nets/cw_8340/network.net.xml"/>
        <route-files value="/Users/junlee/Desktop/2026-1/js/result/tradeoff_pet_top12_seed12_60min_20260417_024953/sumo_nets/cw_8340/routes_seed48.trips.xml"/>
    </input>

    <output>
        <output-file value="/Users/junlee/Desktop/2026-1/js/result/tradeoff_pet_top12_seed12_60min_20260417_024953/sumo_nets/cw_8340/routes_seed48.rou.xml"/>
        <alternatives-output value="NUL"/>
    </output>

    <time>
        <begin value="0.0"/>
        <end value="3600.0"/>
    </time>

    <report>
        <no-warnings value="true"/>
        <ignore-errors value="true"/>
        <no-step-log value="true"/>
    </report>

</duarouterConfiguration>
-->

<routes xmlns:xsi="http://www.w3.org/2001/XMLSchema-instance" xsi:noNamespaceSchemaLocation="http://sumo.dlr.de/xsd/routes_file.xsd">
    <vType id="passenger" vClass="passenger"/>
    <vehicle id="0" type="passenger" depart="0.00">
        <route edges="218681380#1 381452165#0 381452165#1 -381452123#0 -381452118#1"/>
    </vehicle>
    <vehicle id="1" type="passenger" depart="3.89">
        <route edges="381452126#1 -381452118#0 520307305#5 218681380#1 -381458600"/>
    </vehicle>
    <vehicle id="2" type="passenger" depart="7.79">
        <route edges="420317544#1 420317544#2 -420187959#2 -420187959#1 -1279010544#0 520307305#3 520307305#4 520307305#5 218681380#1 381452165#0 -381452126#0"/>
    </vehicle>
    <vehicle id="3" type="passenger" depart="11.68">
        <route edges="381452165#2 -381452118#2 -381452118#1 -381452118#0 520307305#5 218681380#1 218681380#2 -381452118#5"/>
    </vehicle>
    <vehicle id="4" type="passenger" depart="15.57">
        <route edges="520307305#1 520307305#2 1279010544#0 420187959#1 420187959#2 420187959#3 420187959#4 420187959#5"/>
    </vehicle>
    <vehicle id="5" type="passenger" depart="19.47">
        <route edges="-381452098 520307305#4 381452118#0 381452118#1 381452118#2"/>
    </vehicle>
    <vehicle id="6" type="passenger" depart="23.36">
        <route edges="-381452143#0 -420187959#5 -420187959#4 420317540 117914352#0 117914352#1"/>
    </vehicle>
    <vehicle id="7" type="passenger" depart="27.26">
        <route edges="420187959#2 420187959#3 -117914354 381452170#0 381452170#1 -381452103#0 -1279010544#0 520307305#3 520307305#4 520307305#5 218681380#1 218681380#2 -381452118#5 -381452118#4"/>
    </vehicle>
    <vehicle id="8" type="passenger" depart="31.15">
        <route edges="-381452143#0 -420187959#5 -420187959#4 -420187959#3 -420187959#2 -420187959#1 -1279010544#0 -239357573#3 -239357573#2"/>
    </vehicle>
    <vehicle id="9" type="passenger" depart="35.04">
        <route edges="-218681380#2 -218681380#1 -218681380#0 -520307305#4 -520307305#3 1279010544#0 420187959#1 420187959#2 420187959#3 -117914354 117914345#0 117914345#1"/>
    </vehicle>
    <vehicle id="10" type="passenger" depart="38.94">
        <route edges="-381452118#4 -381452118#3 -381452118#2 -381452118#1 -381452118#0"/>
    </vehicle>
    <vehicle id="11" type="passenger" depart="42.83">
        <route edges="381452123#1 381452118#4 381452118#5 -218681380#2 -218681380#1 -381458592#2"/>
    </vehicle>
    <vehicle id="12" type="passenger" depart="46.72">
        <route edges="-420187959#11 -420187959#10 -420187959#9 -420187959#8 -420187959#7 -420187959#6 -420187959#5 -420187959#4 -420187959#3 -420187959#2"/>
    </vehicle>
    <vehicle id="13" type="passenger" depart="50.62">
        <route edges="381452118#1 381452123#0 -381452165#1 -381452165#0 -218681380#1 -218681380#0 -520307305#4 -520307305#3 -520307305#2 -520307305#1 -520307305#0 244215552#0 -420317543#1 -420317543#0 117914352#0 117914352#1 420317544#1"/>
    </vehicle>
    <vehicle id="14" type="passenger" depart="54.51">
        <route edges="239357573#1 239357573#2 239357573#3 520307305#3 520307305#4 520307305#5 -381458592#2 -381458592#1"/>
    </vehicle>
    <vehicle id="15" type="passenger" depart="58.40">
        <route edges="-381452118#0 520307305#5 218681380#1 381452165#0 381452165#1 -381452123#0 381452118#2"/>
    </vehicle>
    <vehicle id="16" type="passenger" depart="62.30">
        <route edges="-381452118#5 381452126#0 -381452165#0 -218681380#1 -218681380#0 -520307305#4 -520307305#3 -520307305#2 -520307305#1 -520307305#0 244215552#0 -420317543#1 -420317543#0 -420317540"/>
    </vehicle>
    <vehicle id="17" type="passenger" depart="66.19">
        <route edges="381458600 -218681380#1 -218681380#0 -520307305#4 -520307305#3 -239357573#3 -239357573#2 -239357573#1 381458581#1"/>
    </vehicle>
    <vehicle id="18" type="passenger" depart="70.09">
        <route edges="-381458581#1 239357573#1 239357573#2 239357573#3 520307305#3 520307305#4 520307305#5 -381458592#2"/>
    </vehicle>
    <vehicle id="19" type="passenger" depart="73.98">
        <route edges="-520307305#4 -520307305#3 1279010544#0 420187959#1 420187959#2 420187959#3 420187959#4 420187959#5 420187959#6 420187959#7 -381452108"/>
    </vehicle>
    <vehicle id="20" type="passenger" depart="77.87">
        <route edges="-381452103#0 -1279010544#0 520307305#3 520307305#4 520307305#5 218681380#1 218681380#2 -381452118#5 -381452118#4 -381452118#3"/>
    </vehicle>
    <vehicle id="21" type="passenger" depart="81.77">
        <route edges="-420187959#10 -420187959#9 -420187959#8 -420187959#7 -420187959#6 -420187959#5 -420187959#4 -420187959#3 -420187959#2 -420187959#1 -1279010544#0 520307305#3 520307305#4 520307305#5 218681380#1"/>
    </vehicle>
    <vehicle id="22" type="passenger" depart="85.66">
        <route edges="-420187959#1 -1279010544#0 -520307305#2 -520307305#1 -520307305#0 244215552#0 -420317543#1 -420317544#1"/>
    </vehicle>
    <vehicle id="23" type="passenger" depart="89.55">
        <route edges="381452170#1 -381452103#0 420187959#1 420187959#2 420187959#3 -117914354 381452170#0 381452182"/>
    </vehicle>
    <vehicle id="24" type="passenger" depart="93.45">
        <route edges="-420317540 420187959#4 420187959#5 420187959#6"/>
    </vehicle>
    <vehicle id="25" type="passenger" depart="97.34">
        <route edges="-117914345#0 381452170#0 381452170#1 -381452103#0 -1279010544#0 -520307305#2 -520307305#1 -520307305#0 244215552#0"/>
    </vehicle>
    <vehicle id="26" type="passenger" depart="101.23">
        <route edges="381452123#0 -381452165#1 -381452165#0 -218681380#1 -218681380#0 -520307305#4 -520307305#3 -520307305#2 -520307305#1 -520307305#0 244215552#0 -420317543#1 -420317543#0"/>
    </vehicle>
    <vehicle id="27" type="passenger" depart="105.13">
        <route edges="-420317543#0 -420317540 -420187959#3 -420187959#2 -420187959#1 381452103#0 -381452170#1"/>
    </vehicle>
    <vehicle id="28" type="passenger" depart="109.02">
        <route edges="381452170#0 381452170#1 -381452103#0 -1279010544#0 520307305#3 520307305#4 520307305#5 218681380#1 381452165#0 -381452126#0"/>
    </vehicle>
    <vehicle id="29" type="passenger" depart="112.92">
        <route edges="239357573#0 239357573#1 239357573#2 239357573#3 1279010544#0 420187959#1 420187959#2 420187959#3 420187959#4 420187959#5 381452143#0"/>
    </vehicle>
    <vehicle id="30" type="passenger" depart="116.81">
        <route edges="420187959#1 420187959#2 -420317544#2 420317543#1"/>
    </vehicle>
    <vehicle id="31" type="passenger" depart="120.70">
        <route edges="-381452118#4"/>
    </vehicle>
    <vehicle id="32" type="passenger" depart="124.60">
        <route edges="-381452182 -381452170#0 117914345#0 -381452143#1 -381452143#0 420187959#6 420187959#7 420187959#8 420187959#9 420187959#10"/>
    </vehicle>
    <vehicle id="33" type="passenger" depart="128.49">
        <route edges="239357573#2 239357573#3 520307305#3 520307305#4 520307305#5 218681380#1 381452165#0"/>
    </vehicle>
    <vehicle id="34" type="passenger" depart="132.38">
        <route edges="-420317543#1 420317544#2 -420187959#2 -420187959#1 -1279010544#0 520307305#3 520307305#4 520307305#5 218681380#1 381452165#0 381452126#1 -381452118#0 -520307305#4 -520307305#3 1279010544#0"/>
    </vehicle>
    <vehicle id="35" type="passenger" depart="136.28">
        <route edges="-420317543#0 -420317540 -420187959#3 -420187959#2 -420187959#1 -1279010544#0 520307305#3 520307305#4 381452118#0 381452118#1 381452118#2 381452118#3"/>
    </vehicle>
    <vehicle id="36" type="passenger" depart="140.17">
        <route edges="420187959#4 420187959#5 420187959#6 420187959#7 420187959#8 420187959#9"/>
    </vehicle>
    <vehicle id="37" type="passenger" depart="144.06">
        <route edges="117914354 -420187959#3 -420187959#2 -420187959#1 -1279010544#0 520307305#3 520307305#4 381452118#0 -381452126#1 -381452165#0 -218681380#1"/>
    </vehicle>
    <vehicle id="38" type="passenger" depart="147.96">
        <route edges="-117914345#0 381452170#0 381452170#1 -381452103#0 -1279010544#0 520307305#3 520307305#4 381452118#0 381452118#1"/>
    </vehicle>
    <vehicle id="39" type="passenger" depart="151.85">
        <route edges="-420187959#4 -420187959#3 -420187959#2 -420187959#1 -1279010544#0 -520307305#2 -520307305#1 -520307305#0 -37928420"/>
    </vehicle>
    <vehicle id="40" type="passenger" depart="155.75">
        <route edges="381458592#2 -218681380#0 -520307305#4 -520307305#3 1279010544#0 420187959#1 420187959#2 420187959#3 -117914354 375125209"/>
    </vehicle>
    <vehicle id="41" type="passenger" depart="159.64">
        <route edges="117914345#0 -381452143#1 -381452143#0 420187959#6 420187959#7 420187959#8 420187959#9 420187959#10 420187959#11 420187959#12"/>
    </vehicle>
    <vehicle id="42" type="passenger" depart="163.53">
        <route edges="239357573#2 239357573#3 520307305#3 520307305#4 520307305#5 218681380#1 381452165#0 381452126#1 -381452118#0 -520307305#4"/>
    </vehicle>
    <vehicle id="43" type="passenger" depart="167.43">
        <route edges="-381452143#0 -420187959#5 -420187959#4 -117914354 381452170#0 381452182"/>
    </vehicle>
    <vehicle id="44" type="passenger" depart="171.32">
        <route edges="420187959#3 -117914354 381452170#0 381452170#1 -381452103#0 -1279010544#0 520307305#3 520307305#4 520307305#5"/>
    </vehicle>
    <vehicle id="45" type="passenger" depart="175.21">
        <route edges="37928420 520307305#0 520307305#1 520307305#2 520307305#3 520307305#4 381452118#0 -381452126#1"/>
    </vehicle>
    <vehicle id="46" type="passenger" depart="179.11">
        <route edges="-381452165#1 -381452165#0 -218681380#1 -218681380#0 -520307305#4 -520307305#3 -520307305#2 -520307305#1 -520307305#0 244215552#0 -420317543#1 420317544#2 -420187959#2 -420187959#1 -1279010544#0"/>
    </vehicle>
    <vehicle id="47" type="passenger" depart="183.00">
        <route edges="520307305#4 520307305#5 218681380#1 381452165#0 381452126#1 -381452118#0 -520307305#4 -520307305#3 -520307305#2 -520307305#1 -520307305#0 244215552#0 -420317543#1 -420317544#1 -420317544#0"/>
    </vehicle>
    <vehicle id="48" type="passenger" depart="186.89">
        <route edges="-381452170#1 -381452170#0 117914345#0 -381452143#1 -381452143#0 -420187959#5 -420187959#4 -117914354"/>
    </vehicle>
    <vehicle id="49" type="passenger" depart="190.79">
        <route edges="381452118#3 381452118#4 381452118#5 -218681380#2 -218681380#1 -218681380#0 -520307305#4 -520307305#3 -239357573#3"/>
    </vehicle>
    <vehicle id="50" type="passenger" depart="194.68">
        <route edges="-381452165#0 -218681380#1 -218681380#0 -520307305#4 -520307305#3 -520307305#2 -520307305#1 -520307305#0 244215552#0 -420317543#1 -420317543#0 117914352#0 117914352#1 420317544#1"/>
    </vehicle>
    <vehicle id="51" type="passenger" depart="198.58">
        <route edges="-420187959#1 -1279010544#0 -520307305#2 -520307305#1 -520307305#0 244215552#0 -420317543#1 -420317543#0 -420317540 -117914354 381452170#0 381452170#1"/>
    </vehicle>
    <vehicle id="52" type="passenger" depart="202.47">
        <route edges="381452118#2 381452118#3 381452118#4 381452118#5 -218681380#2 -218681380#1 -218681380#0 -520307305#4 -520307305#3 -239357573#3 -239357573#2 -239357573#1"/>
    </vehicle>
    <vehicle id="53" type="passenger" depart="206.36">
        <route edges="420187959#5 420187959#6 420187959#7 420187959#8 420187959#9 420187959#10 420187959#11 420187959#12"/>
    </vehicle>
    <vehicle id="54" type="passenger" depart="210.26">
        <route edges="520307305#1 520307305#2 1279010544#0 381452103#0 -381452170#1 381452182"/>
    </vehicle>
    <vehicle id="55" type="passenger" depart="214.15">
        <route edges="-218681380#3 -218681380#2 -218681380#1 -218681380#0 -520307305#4 -520307305#3 -520307305#2 -520307305#1 -520307305#0 244215552#0 244215552#1"/>
    </vehicle>
    <vehicle id="56" type="passenger" depart="218.04">
        <route edges="-117914345#1 -117914345#0 381452170#0 381452170#1 -381452103#0 -1279010544#0 520307305#3 520307305#4 520307305#5 218681380#1 -381458600 -381458592#0"/>
    </vehicle>
    <vehicle id="57" type="passenger" depart="221.94">
        <route edges="381452103#0 -381452170#1 -381452170#0 117914345#0 -381452143#1 -381452143#0 420187959#6 420187959#7 420187959#8 420187959#9 420187959#10"/>
    </vehicle>
    <vehicle id="58" type="passenger" depart="225.83">
        <route edges="-381452103#1 -381452103#0 420187959#1 420187959#2 420187959#3 420187959#4 420187959#5 420187959#6 420187959#7 420187959#8 420187959#9 420187959#10"/>
    </vehicle>
    <vehicle id="59" type="passenger" depart="229.73">
        <route edges="381452170#1 -381452103#0 -1279010544#0 -520307305#2 -520307305#1"/>
    </vehicle>
    <vehicle id="60" type="passenger" depart="233.62">
        <route edges="381452118#5 -218681380#2 -218681380#1 -218681380#0 -520307305#4 -520307305#3 -520307305#2"/>
    </vehicle>
    <vehicle id="61" type="passenger" depart="237.51">
        <route edges="381452118#3 381452118#4 381452118#5 -218681380#2 -381458600 381458592#1"/>
    </vehicle>
    <vehicle id="62" type="passenger" depart="241.41">
        <route edges="-520307305#2 -520307305#1 -520307305#0 244215552#0 -420317543#1 420317544#2 -420187959#2 -420187959#1 -1279010544#0 520307305#3 520307305#4 520307305#5 218681380#1 381452165#0 -381452126#0"/>
    </vehicle>
    <vehicle id="63" type="passenger" depart="245.30">
        <route edges="-117914345#1 -117914345#0 381452170#0 381452170#1 -381452103#0 -1279010544#0 -520307305#2 -520307305#1"/>
    </vehicle>
    <vehicle id="64" type="passenger" depart="249.19">
        <route edges="-381452143#1 -381452143#0 -420187959#5 -420187959#4 -420187959#3 -420187959#2 -420187959#1"/>
    </vehicle>
    <vehicle id="65" type="passenger" depart="253.09">
        <route edges="-381452126#0 -381452118#4 -381452123#1"/>
    </vehicle>
    <vehicle id="66" type="passenger" depart="256.98">
        <route edges="520307305#3 520307305#4 520307305#5 218681380#1 381452165#0 381452126#1 -381452118#0 -520307305#4 -520307305#3 -520307305#2 -520307305#1 -520307305#0 244215552#0 -420317543#1 420317544#2 -420187959#2"/>
    </vehicle>
    <vehicle id="67" type="passenger" depart="260.87">
        <route edges="420317540 420317543#0 420317544#2 -420187959#2 -420187959#1 -1279010544#0 520307305#3 520307305#4 381452118#0 -381452126#1 -381452165#0 -218681380#1 -218681380#0"/>
    </vehicle>
    <vehicle id="68" type="passenger" depart="264.77">
        <route edges="117914354 420187959#4 420187959#5 420187959#6 420187959#7"/>
    </vehicle>
    <vehicle id="69" type="passenger" depart="268.66">
        <route edges="381452103#0 -381452170#1 -381452170#0 117914345#0 -381452143#1"/>
    </vehicle>
    <vehicle id="70" type="passenger" depart="272.56">
        <route edges="381452118#4 381452118#5 218681380#3"/>
    </vehicle>
    <vehicle id="71" type="passenger" depart="276.45">
        <route edges="117914352#1 420317544#1 420317544#2 -420187959#2 -420187959#1 -1279010544#0 520307305#3 520307305#4 520307305#5 218681380#1 218681380#2 218681380#3"/>
    </vehicle>
    <vehicle id="72" type="passenger" depart="280.34">
        <route edges="381452123#0 -381452165#1 -381452165#0 -218681380#1 -218681380#0 -520307305#4 -520307305#3 -239357573#3 -239357573#2 -239357573#1 381458581#1"/>
    </vehicle>
    <vehicle id="73" type="passenger" depart="284.24">
        <route edges="-375125209 117914354 -420187959#3 -420187959#2 -420187959#1 -1279010544#0 520307305#3 520307305#4 381452118#0 -381452126#1 -381452165#0"/>
    </vehicle>
    <vehicle id="74" type="passenger" depart="288.13">
        <route edges="-218681380#2 -218681380#1 -218681380#0 -520307305#4 -520307305#3 1279010544#0 381452103#0 -381452170#1 381452182"/>
    </vehicle>
    <vehicle id="75" type="passenger" depart="292.02">
        <route edges="-381452143#1 -381452143#0 -420187959#5 -420187959#4 -117914354 381452170#0 381452170#1 -381452103#0"/>
    </vehicle>
    <vehicle id="76" type="passenger" depart="295.92">
        <route edges="-420317544#1 -420317544#0 -117914352#0 -420317540 420187959#4 420187959#5 381452143#0 381452143#1"/>
    </vehicle>
    <vehicle id="77" type="passenger" depart="299.81">
        <route edges="-381452118#4 -381452118#3 -381452118#2 -381452118#1 -381452118#0 -520307305#4 -520307305#3 1279010544#0 420187959#1 420187959#2 420187959#3 420187959#4 420187959#5 420187959#6 420187959#7 420187959#8 420187959#9 420187959#10 420187959#11"/>
    </vehicle>
    <vehicle id="78" type="passenger" depart="303.70">
        <route edges="520307305#1 520307305#2 520307305#3 520307305#4 520307305#5 218681380#1 381452165#0 -381452126#0 381452118#5"/>
    </vehicle>
    <vehicle id="79" type="passenger" depart="307.60">
        <route edges="420187959#4 420187959#5 381452143#0 381452143#1 -117914345#0 381452170#0 381452170#1 -381452103#0 -1279010544#0 -520307305#2 -520307305#1 -520307305#0 244215552#0 -420317543#1"/>
    </vehicle>
    <vehicle id="80" type="passenger" depart="311.49">
        <route edges="-218681380#3 -218681380#2 -218681380#1 -218681380#0 -520307305#4 -520307305#3 1279010544#0 420187959#1 420187959#2 420187959#3 420187959#4 420187959#5 420187959#6 420187959#7 420187959#8 420187959#9 420187959#10 420187959#11 420187959#12"/>
    </vehicle>
    <vehicle id="81" type="passenger" depart="315.39">
        <route edges="-381452167 -117914352#0 -420317540 420187959#4 420187959#5 420187959#6"/>
    </vehicle>
    <vehicle id="82" type="passenger" depart="319.28">
        <route edges="381452126#1 -381452118#0 -520307305#4 -520307305#3 -520307305#2 -520307305#1 -520307305#0 244215552#0 -420317543#1"/>
    </vehicle>
    <vehicle id="83" type="passenger" depart="323.17">
        <route edges="239357573#3 520307305#3 520307305#4 520307305#5 218681380#1"/>
    </vehicle>
    <vehicle id="84" type="passenger" depart="327.07">
        <route edges="-420187959#11 -420187959#10 -420187959#9 -420187959#8 -420187959#7 -420187959#6 -420187959#5 -420187959#4 -420187959#3 -420187959#2 -420187959#1 -1279010544#0 520307305#3 520307305#4 520307305#5 218681380#1 -381458600 381458592#1"/>
    </vehicle>
    <vehicle id="85" type="passenger" depart="330.96">
        <route edges="381452103#0 -381452170#1 -381452170#0 117914354 420187959#4 420187959#5 381452143#0 381452143#1 -117914345#0 381452170#0 381452170#1"/>
    </vehicle>
    <vehicle id="86" type="passenger" depart="334.85">
        <route edges="-520307305#4 -520307305#3 -520307305#2 -520307305#1 -520307305#0 244215552#0 -420317543#1 420317544#2 -420187959#2 -420187959#1 -1279010544#0 520307305#3 520307305#4 520307305#5 218681380#1 -381458600 381458592#1"/>
    </vehicle>
    <vehicle id="87" type="passenger" depart="338.75">
        <route edges="420317544#1 420317544#2 -420187959#2 -420187959#1 -1279010544#0 520307305#3 520307305#4 520307305#5 218681380#1 381452165#0 381452165#1 381452165#2"/>
    </vehicle>
    <vehicle id="88" type="passenger" depart="342.64">
        <route edges="381458600 -218681380#1 -218681380#0 -520307305#4 -520307305#3 -239357573#3 -239357573#2"/>
    </vehicle>
    <vehicle id="89" type="passenger" depart="346.53">
        <route edges="381452126#0 -381452165#0 -218681380#1 -381458592#2 -381458592#1 381458600"/>
    </vehicle>
    <vehicle id="90" type="passenger" depart="350.43">
        <route edges="381458592#1 381458592#2 -218681380#0 -520307305#4 -520307305#3 1279010544#0 381452103#0 -381452170#1 -381452170#0"/>
    </vehicle>
    <vehicle id="91" type="passenger" depart="354.32">
        <route edges="-381458592#2 -381458592#1 381458600 -218681380#1 -218681380#0 -520307305#4 -520307305#3 -520307305#2 -520307305#1 -520307305#0 244215552#0 -420317543#1 420317544#2 -420187959#2 -420187959#1 -1279010544#0 520307305#3 520307305#4"/>
    </vehicle>
    <vehicle id="92" type="passenger" depart="358.22">
        <route edges="-218681380#2 -218681380#1 -218681380#0 -520307305#4 -520307305#3 1279010544#0 420187959#1 420187959#2 420187959#3 420187959#4 420187959#5 420187959#6 420187959#7 420187959#8 420187959#9 420187959#10 420187959#11 420187959#12"/>
    </vehicle>
    <vehicle id="93" type="passenger" depart="362.11">
        <route edges="381452143#0 381452143#1 -117914345#0 381452170#0 381452170#1 -381452103#0 -1279010544#0 520307305#3 520307305#4 520307305#5 218681380#1 -381458600 381458592#1 381458592#2"/>
    </vehicle>
    <vehicle id="94" type="passenger" depart="366.00">
        <route edges="-381452118#5 381452126#0 -381452165#0 -218681380#1 -218681380#0 -520307305#4 -520307305#3 1279010544#0 420187959#1 420187959#2 420187959#3 420187959#4 420187959#5 420187959#6 420187959#7 420187959#8 420187959#9 420187959#10"/>
    </vehicle>
    <vehicle id="95" type="passenger" depart="369.90">
        <route edges="381452118#5 -218681380#2 381452165#0 381452165#1 381452165#2 381452118#3"/>
    </vehicle>
    <vehicle id="96" type="passenger" depart="373.79">
        <route edges="381458592#0 381458600 -218681380#1 -218681380#0 -520307305#4 -520307305#3 1279010544#0 420187959#1 420187959#2 420187959#3 420187959#4 420187959#5 420187959#6"/>
    </vehicle>
    <vehicle id="97" type="passenger" depart="377.68">
        <route edges="420187959#2 420187959#3 -117914354 381452170#0 381452170#1 -381452103#0 -1279010544#0 -239357573#3 -239357573#2 -239357573#1"/>
    </vehicle>
    <vehicle id="98" type="passenger" depart="381.58">
        <route edges="-218681380#2 381452165#0 381452126#1 -381452118#0 520307305#5 218681380#1 218681380#2"/>
    </vehicle>
    <vehicle id="99" type="passenger" depart="385.47">
        <route edges="-117914345#0 117914354 420187959#4 420187959#5 381452143#0 381452143#1"/>
    </vehicle>
    <vehicle id="100" type="passenger" depart="389.36">
        <route edges="381458600 -218681380#1 -218681380#0 -520307305#4 -520307305#3 -520307305#2 -520307305#1 -520307305#0 244215552#0 -420317543#1"/>
    </vehicle>
    <vehicle id="101" type="passenger" depart="393.26">
        <route edges="117914345#0 -381452143#1 -381452143#0 -420187959#5 -420187959#4 -420187959#3 -420187959#2 -420187959#1 -1279010544#0 520307305#3 520307305#4 381452118#0 381452118#1 381452123#0 -381452165#1"/>
    </vehicle>
    <vehicle id="102" type="passenger" depart="397.15">
        <route edges="-381458592#2 -381458592#1 381458600 -218681380#1 -218681380#0 -520307305#4 -520307305#3 -520307305#2 -520307305#1 -520307305#0 244215552#0 -420317543#1"/>
    </vehicle>
    <vehicle id="103" type="passenger" depart="401.05">
        <route edges="-381458581#1 239357573#1 239357573#2 239357573#3 1279010544#0 420187959#1 420187959#2 420187959#3 -117914354 381452170#0 381452170#1"/>
    </vehicle>
    <vehicle id="104" type="passenger" depart="404.94">
        <route edges="-381458600 381458592#1 381458592#2 -218681380#0 -520307305#4 -520307305#3"/>
    </vehicle>
    <vehicle id="105" type="passenger" depart="408.83">
        <route edges="-420317543#1 -420317543#0 -420317540 -117914354 375125209"/>
    </vehicle>
    <vehicle id="106" type="passenger" depart="412.73">
        <route edges="1279010544#0 420187959#1 420187959#2 -420317544#2 -420317544#1 -420317544#0 -117914352#0"/>
    </vehicle>
    <vehicle id="107" type="passenger" depart="416.62">
        <route edges="420317540 420317543#0 420317544#2 -420187959#2 -420187959#1 -1279010544#0 520307305#3 520307305#4 520307305#5 218681380#1 218681380#2"/>
    </vehicle>
    <vehicle id="108" type="passenger" depart="420.51">
        <route edges="381452103#0 -381452170#1 -381452170#0 117914354 -420187959#3 -420187959#2 -420187959#1 -1279010544#0 520307305#3 520307305#4 520307305#5 218681380#1 218681380#2 -381452118#5 381452126#0"/>
    </vehicle>
    <vehicle id="109" type="passenger" depart="424.41">
        <route edges="1279010544#0 420187959#1 420187959#2 420187959#3 -117914354 381452170#0 381452170#1 -381452103#0 -1279010544#0 -520307305#2 -520307305#1"/>
    </vehicle>
    <vehicle id="110" type="passenger" depart="428.30">
        <route edges="381458600 381452165#0 -381452126#0 381452118#5"/>
    </vehicle>
    <vehicle id="111" type="passenger" depart="432.19">
        <route edges="-520307305#0 244215552#0 -420317543#1 420317544#2 -420187959#2 -420187959#1 -1279010544#0 520307305#3 520307305#4 520307305#5 218681380#1 381452165#0 381452165#1 -381452123#0 -381452118#1"/>
    </vehicle>
    <vehicle id="112" type="passenger" depart="436.09">
        <route edges="381458592#1 381458592#2 -218681380#0 -520307305#4 -520307305#3 1279010544#0 420187959#1 420187959#2 420187959#3 420187959#4 420187959#5 381452143#0 -381452151"/>
    </vehicle>
    <vehicle id="113" type="passenger" depart="439.98">
        <route edges="-117914354 381452170#0 381452170#1 -381452103#0 -1279010544#0 520307305#3 520307305#4 520307305#5 -381458592#2 -381458592#1"/>
    </vehicle>
    <vehicle id="114" type="passenger" depart="443.88">
        <route edges="-420187959#9 -420187959#8 -420187959#7 -420187959#6 -420187959#5 -420187959#4 -420187959#3 -420187959#2 -420187959#1 -1279010544#0 520307305#3 520307305#4 520307305#5 218681380#1 -381458600 381458592#1 381458592#2"/>
    </vehicle>
    <vehicle id="115" type="passenger" depart="447.77">
        <route edges="244215552#0 -420317543#1 -420317543#0 -420317540 420187959#4 420187959#5 381452143#0"/>
    </vehicle>
    <vehicle id="116" type="passenger" depart="451.66">
        <route edges="381452165#2 -381452118#2 -381452118#1 -381452118#0 -520307305#4 -520307305#3 1279010544#0 420187959#1 420187959#2 420187959#3 -117914354 381452170#0 381452170#1 -381452103#0"/>
    </vehicle>
    <vehicle id="117" type="passenger" depart="455.56">
        <route edges="239357573#3 1279010544#0 420187959#1"/>
    </vehicle>
    <vehicle id="118" type="passenger" depart="459.45">
        <route edges="-381452098 520307305#4 381452118#0 -381452126#1 -381452165#0"/>
    </vehicle>
    <vehicle id="119" type="passenger" depart="463.34">
        <route edges="520307305#1 520307305#2 1279010544#0 420187959#1 420187959#2 420187959#3 -117914354 381452170#0"/>
    </vehicle>
    <vehicle id="120" type="passenger" depart="467.24">
        <route edges="-520307305#1 -520307305#0 244215552#0 -420317543#1 420317544#2 -420187959#2 -420187959#1 -1279010544#0 -239357573#3 -239357573#2 -239357573#1"/>
    </vehicle>
    <vehicle id="121" type="passenger" depart="471.13">
        <route edges="381458592#0 381458600 -218681380#1 -218681380#0 -520307305#4 -520307305#3 -520307305#2 -520307305#1 -520307305#0 244215552#0 -420317543#1 -420317543#0 117914352#0"/>
    </vehicle>
    <vehicle id="122" type="passenger" depart="475.02">
        <route edges="420317543#0 420317544#2 -420187959#2 -420187959#1 381452103#0 -381452170#1 -381452170#0 117914354"/>
    </vehicle>
    <vehicle id="123" type="passenger" depart="478.92">
        <route edges="-375125209 117914354 420317540"/>
    </vehicle>
    <vehicle id="124" type="passenger" depart="482.81">
        <route edges="420187959#5 381452143#0 381452143#1 -117914345#0 117914354 420317540 117914352#0 117914352#1 420317544#1 -420317543#0"/>
    </vehicle>
    <vehicle id="125" type="passenger" depart="486.71">
        <route edges="-381452118#1 -381452126#1 381452165#1 381452165#2"/>
    </vehicle>
    <vehicle id="126" type="passenger" depart="490.60">
        <route edges="-381452118#3 -381452118#2 -381452118#1 -381452118#0 -520307305#4 -520307305#3 -239357573#3 -239357573#2 -239357573#1 381458581#1"/>
    </vehicle>
    <vehicle id="127" type="passenger" depart="494.49">
        <route edges="520307305#0 520307305#1 520307305#2 1279010544#0 420187959#1 420187959#2 420187959#3 420187959#4 420187959#5 381452143#0 381452143#1 -117914345#0"/>
    </vehicle>
    <vehicle id="128" type="passenger" depart="498.39">
        <route edges="-420317544#0 381452167"/>
    </vehicle>
    <vehicle id="129" type="passenger" depart="502.28">