<?xml version="1.0" encoding="UTF-8"?>

<!-- generated on 2026-04-17 14:37:01.276777 by Eclipse SUMO randomTrips.py v1.26.0
<configuration>
    <net-file value="/Users/junlee/Desktop/2026-1/js/result/veh_sensitivity_short_cw3_20260417_143049/peak_x1p5_cw3_seed3_20min/sumo_nets/cw_9494/network.net.xml"/>
    <output-trip-file value="/Users/junlee/Desktop/2026-1/js/result/veh_sensitivity_short_cw3_20260417_143049/peak_x1p5_cw3_seed3_20min/sumo_nets/cw_9494/routes_seed44.trips.xml"/>
    <route-file value="/Users/junlee/Desktop/2026-1/js/result/veh_sensitivity_short_cw3_20260417_143049/peak_x1p5_cw3_seed3_20min/sumo_nets/cw_9494/routes_seed44.rou.xml"/>
    <vehicle-class value="passenger"/>
    <seed value="44"/>
    <end value="1200.0"/>
    <period value="1.147917829353506"/>
</configuration>
-->

<routes xmlns:xsi="http://www.w3.org/2001/XMLSchema-instance" xsi:noNamespaceSchemaLocation="http://sumo.dlr.de/xsd/routes_file.xsd">
    <vType id="passenger" vClass="passenger"/>
    <trip id="0" depart="0.00" from="-899499303#0" to="229028020#5" type="passenger"/>
    <trip id="1" depart="1.15" from="781992368#10" to="-381807683#2" type="passenger"/>
    <trip id="2" depart="2.30" from="-381807711#2" to="-117770552#0" type="passenger"/>
    <trip id="3" depart="3.44" from="-381802849#5" to="-117770538#0" type="passenger"/>
    <trip id="4" depart="4.59" from="899499304#1" to="381807711#0" type="passenger"/>
    <trip id="5" depart="5.74" from="381807707" to="-519060523#0" type="passenger"/>
    <trip id="6" depart="6.89" from="-229028020#5" to="781992367#1" type="passenger"/>
    <trip id="7" depart="8.04" from="381802855" to="-381802849#0" type="passenger"/>
    <trip id="8" depart="9.18" from="-229028020#4" to="-229028020#6" type="passenger"/>
    <trip id="9" depart="10.33" from="899499299" to="-229028020#9" type="passenger"/>
    <trip id="10" depart="11.48" from="381802865#0" to="899499303#0" type="passenger"/>
    <trip id="11" depart="12.63" from="-117770562#2" to="-871052107#0" type="passenger"/>
    <trip id="12" depart="13.78" from="-381807705" to="-420080604#2" type="passenger"/>
    <trip id="13" depart="14.92" from="-420086339#1" to="-117770562#3" type="passenger"/>
    <trip id="14" depart="16.07" from="381807702#1" to="519060523#0" type="passenger"/>
    <trip id="15" depart="17.22" from="117770535#0" to="-117770562#0" type="passenger"/>
    <trip id="16" depart="18.37" from="381807711#1" to="420086340#1" type="passenger"/>
    <trip id="17" depart="19.51" from="381807683#4" to="-519060523#1" type="passenger"/>
    <trip id="18" depart="20.66" from="381802849#3" to="229028020#5" type="passenger"/>
    <trip id="19" depart="21.81" from="-381807715#2" to="117770549#0" type="passenger"/>
    <trip id="20" depart="22.96" from="420093962#0" to="381807709#2" type="passenger"/>
    <trip id="21" depart="24.11" from="-781992371#0" to="519060523#1" type="passenger"/>
    <trip id="22" depart="25.25" from="519060523#2" to="-117770562#1" type="passenger"/>
    <trip id="23" depart="26.40" from="-117770549#1" to="420090510#1" type="passenger"/>
    <trip id="24" depart="27.55" from="381807683#2" to="229028020#5" type="passenger"/>
    <trip id="25" depart="28.70" from="-381807709#0" to="-381802849#0" type="passenger"/>
    <trip id="26" depart="29.85" from="-612506388#1" to="612506388#1" type="passenger"/>
    <trip id="27" depart="30.99" from="381802849#6" to="-218684411#2" type="passenger"/>
    <trip id="28" depart="32.14" from="117770535#0" to="-117770562#2" type="passenger"/>
    <trip id="29" depart="33.29" from="381802857" to="-381802849#2" type="passenger"/>
    <trip id="30" depart="34.44" from="-381807702#1" to="381807683#4" type="passenger"/>
    <trip id="31" depart="35.59" from="519060523#1" to="381802867" type="passenger"/>
    <trip id="32" depart="36.73" from="-420090510#5" to="381807683#4" type="passenger"/>
    <trip id="33" depart="37.88" from="-420086340#3" to="-117770538#0" type="passenger"/>
    <trip id="34" depart="39.03" from="-420090510#0" to="381807710#0" type="passenger"/>
    <trip id="35" depart="40.18" from="381802865#0" to="-381807702#1" type="passenger"/>
    <trip id="36" depart="41.33" from="519060523#2" to="519060523#3" type="passenger"/>
    <trip id="37" depart="42.47" from="-420090510#1" to="899499301#3" type="passenger"/>
    <trip id="38" depart="43.62" from="-420086340#1" to="-218684411#3" type="passenger"/>
    <trip id="39" depart="44.77" from="1199502738#0" to="781992368#3" type="passenger"/>
    <trip id="40" depart="45.92" from="381802849#5" to="229028020#6" type="passenger"/>
    <trip id="41" depart="47.06" from="-420093962#0" to="-899499301#3" type="passenger"/>
    <trip id="42" depart="48.21" from="-229028020#5" to="-420080604#0" type="passenger"/>
    <trip id="43" depart="49.36" from="896413216#1" to="381807702#1" type="passenger"/>
    <trip id="44" depart="50.51" from="-229028020#5" to="117770535#2" type="passenger"/>
    <trip id="45" depart="51.66" from="381807683#3" to="788411962#1" type="passenger"/>
    <trip id="46" depart="52.80" from="-229028020#7" to="782303556" type="passenger"/>
    <trip id="47" depart="53.95" from="420090510#0" to="-420086340#0" type="passenger"/>
    <trip id="48" depart="55.10" from="218684411#3" to="519060523#2" type="passenger"/>
    <trip id="49" depart="56.25" from="-420080604#2" to="381807711#2" type="passenger"/>
    <trip id="50" depart="57.40" from="229028020#5" to="-229028020#1" type="passenger"/>
    <trip id="51" depart="58.54" from="-420086340#3" to="-899499303#1" type="passenger"/>
    <trip id="52" depart="59.69" from="-420086339#2" to="-381807711#1" type="passenger"/>
    <trip id="53" depart="60.84" from="381802849#4" to="229028020#2" type="passenger"/>
    <trip id="54" depart="61.99" from="-519060523#0" to="-519060523#0" type="passenger"/>
    <trip id="55" depart="63.14" from="117770562#1" to="788411962#0" type="passenger"/>
    <trip id="56" depart="64.28" from="-229028020#6" to="788411962#1" type="passenger"/>
    <trip id="57" depart="65.43" from="896413216#0" to="381807709#2" type="passenger"/>
    <trip id="58" depart="66.58" from="519060520#1" to="-807006809" type="passenger"/>
    <trip id="59" depart="67.73" from="899499300" to="420086340#2" type="passenger"/>
    <trip id="60" depart="68.88" from="381807705" to="117770538#1" type="passenger"/>
    <trip id="61" depart="70.02" from="-381807711#1" to="381807711#0" type="passenger"/>
    <trip id="62" depart="71.17" from="420080604#1" to="-117770538#0" type="passenger"/>
    <trip id="63" depart="72.32" from="-519060520#0" to="229028020#4" type="passenger"/>
    <trip id="64" depart="73.47" from="-381807710#0" to="-381802849#4" type="passenger"/>
    <trip id="65" depart="74.61" from="-381807705" to="-117770539" type="passenger"/>
    <trip id="66" depart="75.76" from="-381802849#6" to="-899499299" type="passenger"/>
    <trip id="67" depart="76.91" from="117770562#2" to="381807683#3" type="passenger"/>
    <trip id="68" depart="78.06" from="-519060520#0" to="-381802849#3" type="passenger"/>
    <trip id="69" depart="79.21" from="381807703#1" to="381807710#0" type="passenger"/>
    <trip id="70" depart="80.35" from="-519060523#1" to="381802851#1" type="passenger"/>
    <trip id="71" depart="81.50" from="-519060523#0" to="381807688#2" type="passenger"/>
    <trip id="72" depart="82.65" from="519060522#2" to="-117770539" type="passenger"/>
    <trip id="73" depart="83.80" from="519060520#0" to="-381802849#1" type="passenger"/>
    <trip id="74" depart="84.95" from="-117770549#1" to="-229028020#2" type="passenger"/>
    <trip id="75" depart="86.09" from="229028020#5" to="781992368#11" type="passenger"/>
    <trip id="76" depart="87.24" from="807006785#0" to="-381802857" type="passenger"/>
    <trip id="77" depart="88.39" from="117770533" to="896413216#1" type="passenger"/>
    <trip id="78" depart="89.54" from="781992368#7" to="519060523#2" type="passenger"/>
    <trip id="79" depart="90.69" from="-420086339#1" to="-420086340#0" type="passenger"/>
    <trip id="80" depart="91.83" from="-381802867" to="-420086339#0" type="passenger"/>
    <trip id="81" depart="92.98" from="-899499301#3" to="519060522#1" type="passenger"/>
    <trip id="82" depart="94.13" from="381807688#0" to="-381807683#1" type="passenger"/>
    <trip id="83" depart="95.28" from="-381807702#1" to="117770538#1" type="passenger"/>
    <trip id="84" depart="96.43" from="781992368#8" to="117770558#0" type="passenger"/>
    <trip id="85" depart="97.57" from="420090510#5" to="381807710#0" type="passenger"/>
    <trip id="86" depart="98.72" from="781992368#3" to="117770562#3" type="passenger"/>
    <trip id="87" depart="99.87" from="519060520#1" to="-420086340#0" type="passenger"/>
    <trip id="88" depart="101.02" from="-381807707" to="612506388#1" type="passenger"/>
    <trip id="89" depart="102.16" from="117770558#0" to="381807683#3" type="passenger"/>
    <trip id="90" depart="103.31" from="-381807688#0" to="-117770562#1" type="passenger"/>
    <trip id="91" depart="104.46" from="-381807711#2" to="117770535#0" type="passenger"/>
    <trip id="92" depart="105.61" from="-117770562#2" to="-420086339#2" type="passenger"/>
    <trip id="93" depart="106.76" from="896413216#1" to="117770535#1" type="passenger"/>
    <trip id="94" depart="107.90" from="-117770538#1" to="519060522#2" type="passenger"/>
    <trip id="95" depart="109.05" from="-420093962#0" to="-381807683#2" type="passenger"/>
    <trip id="96" depart="110.20" from="381807683#0" to="381807705" type="passenger"/>
    <trip id="97" depart="111.35" from="-519060523#1" to="381807715#2" type="passenger"/>
    <trip id="98" depart="112.50" from="781992368#3" to="-519060523#3" type="passenger"/>
    <trip id="99" depart="113.64" from="117770562#1" to="-117770538#0" type="passenger"/>
    <trip id="100" depart="114.79" from="381802849#3" to="-420090510#1" type="passenger"/>
    <trip id="101" depart="115.94" from="381807683#4" to="420090510#3" type="passenger"/>
    <trip id="102" depart="117.09" from="-612506388#1" to="381807705" type="passenger"/>
    <trip id="103" depart="118.24" from="896413216#1" to="-381807683#1" type="passenger"/>
    <trip id="104" depart="119.38" from="519060520#0" to="117770558#1" type="passenger"/>
    <trip id="105" depart="120.53" from="896413216#1" to="-229028020#1" type="passenger"/>
    <trip id="106" depart="121.68" from="-420086340#1" to="781992371#0" type="passenger"/>
    <trip id="107" depart="122.83" from="218684411#2" to="-781992372" type="passenger"/>
    <trip id="108" depart="123.98" from="899499300" to="-117770562#3" type="passenger"/>
    <trip id="109" depart="125.12" from="-117770552#0" to="420090510#5" type="passenger"/>
    <trip id="110" depart="126.27" from="229028020#4" to="612506388#0" type="passenger"/>
    <trip id="111" depart="127.42" from="-519060523#3" to="-381807711#0" type="passenger"/>
    <trip id="112" depart="128.57" from="781992368#4" to="229028020#3" type="passenger"/>
    <trip id="113" depart="129.71" from="-117770549#1" to="420086339#2" type="passenger"/>
    <trip id="114" depart="130.86" from="381807683#1" to="-381802849#0" type="passenger"/>
    <trip id="115" depart="132.01" from="519060520#0" to="420093962#0" type="passenger"/>
    <trip id="116" depart="133.16" from="381802873" to="381802849#3" type="passenger"/>
    <trip id="117" depart="134.31" from="117770535#0" to="381807711#0" type="passenger"/>
    <trip id="118" depart="135.45" from="-871052107#0" to="807006809" type="passenger"/>
    <trip id="119" depart="136.60" from="381802849#3" to="381807709#0" type="passenger"/>
    <trip id="120" depart="137.75" from="218684411#3" to="-381802849#0" type="passenger"/>
    <trip id="121" depart="138.90" from="-381807709#2" to="-420080604#1" type="passenger"/>
    <trip id="122" depart="140.05" from="-420090510#0" to="-381807711#1" type="passenger"/>
    <trip id="123" depart="141.19" from="519060522#0" to="229028020#4" type="passenger"/>
    <trip id="124" depart="142.34" from="-229028020#8" to="218684411#2" type="passenger"/>
    <trip id="125" depart="143.49" from="381807709#0" to="-117770552#0" type="passenger"/>
    <trip id="126" depart="144.64" from="-381807707" to="-117770539" type="passenger"/>
    <trip id="127" depart="145.79" from="381807709#0" to="-899499301#0" type="passenger"/>
    <trip id="128" depart="146.93" from="-117770549#1" to="-381807715#2" type="passenger"/>
    <trip id="129" depart="148.08" from="-381807707" to="381802849#1" type="passenger"/>
    <trip id="130" depart="149.23" from="-908057245" to="-899499304#1" type="passenger"/>
    <trip id="131" depart="150.38" from="-519060523#2" to="-117770562#0" type="passenger"/>
    <trip id="132" depart="151.53" from="-519060523#2" to="381807683#2" type="passenger"/>
    <trip id="133" depart="152.67" from="218684411#4" to="381802849#5" type="passenger"/>
    <trip id="134" depart="153.82" from="420086340#1" to="420080604#1" type="passenger"/>
    <trip id="135" depart="154.97" from="381807688#0" to="899499301#3" type="passenger"/>
    <trip id="136" depart="156.12" from="-420093962#1" to="420086340#0" type="passenger"/>
    <trip id="137" depart="157.26" from="-420090510#4" to="381802851#2" type="passenger"/>
    <trip id="138" depart="158.41" from="781992371#1" to="117770549#0" type="passenger"/>
    <trip id="139" depart="159.56" from="381802851#2" to="899499305#0" type="passenger"/>
    <trip id="140" depart="160.71" from="-519060523#1" to="-420086340#0" type="passenger"/>
    <trip id="141" depart="161.86" from="-117770552#0" to="-229028020#4" type="passenger"/>
    <trip id="142" depart="163.00" from="420090510#3" to="-381807715#1" type="passenger"/>
    <trip id="143" depart="164.15" from="519060523#2" to="381807715#1" type="passenger"/>
    <trip id="144" depart="165.30" from="781992368#2" to="117770558#3" type="passenger"/>
    <trip id="145" depart="166.45" from="788411962#0" to="381802849#1" type="passenger"/>
    <trip id="146" depart="167.60" from="-381802857" to="788411962#0" type="passenger"/>
    <trip id="147" depart="168.74" from="229028020#3" to="-899499301#0" type="passenger"/>
    <trip id="148" depart="169.89" from="1199502738#2" to="-807006785#0" type="passenger"/>
    <trip id="149" depart="171.04" from="-229028020#6" to="-117770562#2" type="passenger"/>
    <trip id="150" depart="172.19" from="-229028020#7" to="782306024" type="passenger"/>
    <trip id="151" depart="173.34" from="-781992371#1" to="-117770549#1" type="passenger"/>
    <trip id="152" depart="174.48" from="-899499301#0" to="381807683#2" type="passenger"/>
    <trip id="153" depart="175.63" from="381807683#0" to="788411962#1" type="passenger"/>
    <trip id="154" depart="176.78" from="-781992371#1" to="899499300" type="passenger"/>
    <trip id="155" depart="177.93" from="-117770549#0" to="-381802857" type="passenger"/>
    <trip id="156" depart="179.08" from="229028020#2" to="-117770533" type="passenger"/>
    <trip id="157" depart="180.22" from="-871052107#0" to="381807683#3" type="passenger"/>
    <trip id="158" depart="181.37" from="-420086340#0" to="-381807688#0" type="passenger"/>
    <trip id="159" depart="182.52" from="381807683#2" to="117770549#1" type="passenger"/>
    <trip id="160" depart="183.67" from="899499304#1" to="899499300" type="passenger"/>
    <trip id="161" depart="184.81" from="-420093962#1" to="-117770552#1" type="passenger"/>
    <trip id="162" depart="185.96" from="-381807688#0" to="117770535#0" type="passenger"/>
    <trip id="163" depart="187.11" from="-899499304#1" to="117770535#0" type="passenger"/>
    <trip id="164" depart="188.26" from="-229028020#8" to="-420090510#3" type="passenger"/>
    <trip id="165" depart="189.41" from="-899499303#0" to="420090510#1" type="passenger"/>
    <trip id="166" depart="190.55" from="-381802849#4" to="381807683#2" type="passenger"/>
    <trip id="167" depart="191.70" from="381807703#1" to="-381807702#1" type="passenger"/>
    <trip id="168" depart="192.85" from="381807711#0" to="-788411962#1" type="passenger"/>
    <trip id="169" depart="194.00" from="519060523#0" to="-117770549#0" type="passenger"/>
    <trip id="170" depart="195.15" from="-519060521" to="218684411#3" type="passenger"/>
    <trip id="171" depart="196.29" from="-420090510#5" to="-899499299" type="passenger"/>
    <trip id="172" depart="197.44" from="381802849#0" to="-381807711#2" type="passenger"/>
    <trip id="173" depart="198.59" from="781992368#0" to="-420086340#2" type="passenger"/>
    <trip id="174" depart="199.74" from="381807707" to="899499301#0" type="passenger"/>
    <trip id="175" depart="200.89" from="-381802849#1" to="781992368#8" type="passenger"/>
    <trip id="176" depart="202.03" from="-381807688#0" to="117770549#0" type="passenger"/>
    <trip id="177" depart="203.18" from="-381802849#5" to="807006809" type="passenger"/>
    <trip id="178" depart="204.33" from="-519060520#0" to="218684411#3" type="passenger"/>
    <trip id="179" depart="205.48" from="899499301#3" to="-381802851#2" type="passenger"/>
    <trip id="180" depart="206.63" from="-229028020#6" to="381807711#0" type="passenger"/>
    <trip id="181" depart="207.77" from="-218684411#3" to="-381802849#3" type="passenger"/>
    <trip id="182" depart="208.92" from="-420086340#0" to="-117770538#1" type="passenger"/>
    <trip id="183" depart="210.07" from="-612506388#1" to="-218684411#1" type="passenger"/>
    <trip id="184" depart="211.22" from="807006785#2" to="218684411#2" type="passenger"/>
    <trip id="185" depart="212.36" from="-420080604#1" to="781992368#9" type="passenger"/>
    <trip id="186" depart="213.51" from="-117770562#2" to="-381802849#2" type="passenger"/>
    <trip id="187" depart="214.66" from="-788411962#1" to="519060523#2" type="passenger"/>
    <trip id="188" depart="215.81" from="807006785#2" to="899499302" type="passenger"/>
    <trip id="189" depart="216.96" from="-381807709#2" to="-807006785#0" type="passenger"/>
    <trip id="190" depart="218.10" from="781992367#1" to="519060522#4" type="passenger"/>
    <trip id="191" depart="219.25" from="896413216#0" to="-229028020#3" type="passenger"/>
    <trip id="192" depart="220.40" from="-117770562#3" to="-899499301#0" type="passenger"/>
    <trip id="193" depart="221.55" from="519060523#2" to="381807710#0" type="passenger"/>
    <trip id="194" depart="222.70" from="-899499304#0" to="381807709#2" type="passenger"/>
    <trip id="195" depart="223.84" from="117770535#2" to="612506388#0" type="passenger"/>
    <trip id="196" depart="224.99" from="-420090510#4" to="420090510#0" type="passenger"/>
    <trip id="197" depart="226.14" from="-519060521" to="-519060523#3" type="passenger"/>
    <trip id="198" depart="227.29" from="-420086340#2" to="-117770552#1" type="passenger"/>
    <trip id="199" depart="228.44" from="381807691" to="381807702#1" type="passenger"/>
    <trip id="200" depart="229.58" from="117770533" to="381802849#6" type="passenger"/>
    <trip id="201" depart="230.73" from="-871052107#0" to="420086340#3" type="passenger"/>
    <trip id="202" depart="231.88" from="519060522#0" to="781992367#1" type="passenger"/>
    <trip id="203" depart="233.03" from="381807702#1" to="-381807711#0" type="passenger"/>
    <trip id="204" depart="234.18" from="519060522#0" to="229028020#9" type="passenger"/>
    <trip id="205" depart="235.32" from="420086339#0" to="420086340#3" type="passenger"/>
    <trip id="206" depart="236.47" from="-381807709#2" to="-229028020#1" type="passenger"/>
    <trip id="207" depart="237.62" from="420090510#3" to="381807705" type="passenger"/>
    <trip id="208" depart="238.77" from="-117770549#1" to="-117770562#2" type="passenger"/>
    <trip id="209" depart="239.91" from="-899499304#1" to="381807688#2" type="passenger"/>
    <trip id="210" depart="241.06" from="-381802849#6" to="381807711#1" type="passenger"/>
    <trip id="211" depart="242.21" from="-781992371#0" to="381807688#0" type="passenger"/>
    <trip id="212" depart="243.36" from="-420090510#0" to="-381807711#1" type="passenger"/>
    <trip id="213" depart="244.51" from="-381802867" to="381807710#0" type="passenger"/>
    <trip id="214" depart="245.65" from="381802857" to="-218684411#4" type="passenger"/>
    <trip id="215" depart="246.80" from="-381802849#4" to="612506388#0" type="passenger"/>
    <trip id="216" depart="247.95" from="-420086340#1" to="807006809" type="passenger"/>
    <trip id="217" depart="249.10" from="899499302" to="519060522#4" type="passenger"/>
    <trip id="218" depart="250.25" from="-381802851#3" to="-229028020#8" type="passenger"/>
    <trip id="219" depart="251.39" from="519060522#4" to="-899499304#0" type="passenger"/>
    <trip id="220" depart="252.54" from="-117770562#2" to="-229028020#8" type="passenger"/>
    <trip id="221" depart="253.69" from="-420090510#3" to="-420080604#0" type="passenger"/>
    <trip id="222" depart="254.84" from="-117770562#3" to="420080604#2" type="passenger"/>
    <trip id="223" depart="255.99" from="-229028020#1" to="-420090510#0" type="passenger"/>
    <trip id="224" depart="257.13" from="381807709#1" to="420090510#0" type="passenger"/>
    <trip id="225" depart="258.28" from="420093962#0" to="-381807711#2" type="passenger"/>
    <trip id="226" depart="259.43" from="-381807683#4" to="381802867" type="passenger"/>
    <trip id="227" depart="260.58" from="519060521" to="420086340#1" type="passenger"/>
    <trip id="228" depart="261.73" from="420080604#2" to="-899499303#1" type="passenger"/>
    <trip id="229" depart="262.87" from="381807711#2" to="788411962#0" type="passenger"/>
    <trip id="230" depart="264.02" from="381802851#2" to="-381802851#1" type="passenger"/>
    <trip id="231" depart="265.17" from="519060522#3" to="-117770552#1" type="passenger"/>
    <trip id="232" depart="266.32" from="-117770549#0" to="-420090510#3" type="passenger"/>
    <trip id="233" depart="267.46" from="-788411962#1" to="899499303#0" type="passenger"/>
    <trip id="234" depart="268.61" from="420080604#1" to="117770535#1" type="passenger"/>
    <trip id="235" depart="269.76" from="229028020#8" to="-899499303#1" type="passenger"/>
    <trip id="236" depart="270.91" from="781992370" to="381802865#0" type="passenger"/>
    <trip id="237" depart="272.06" from="-782306024" to="896413216#0" type="passenger"/>
    <trip id="238" depart="273.20" from="519060522#1" to="-899499303#0" type="passenger"/>
    <trip id="239" depart="274.35" from="899499300" to="-218684411#1" type="passenger"/>
    <trip id="240" depart="275.50" from="781992368#3" to="117770549#0" type="passenger"/>
    <trip id="241" depart="276.65" from="-899499304#1" to="117770535#1" type="passenger"/>
    <trip id="242" depart="277.80" from="-420080604#1" to="381807709#2" type="passenger"/>
    <trip id="243" depart="278.94" from="381807711#2" to="381807707" type="passenger"/>
    <trip id="244" depart="280.09" from="117770562#0" to="-381802849#0" type="passenger"/>
    <trip id="245" depart="281.24" from="-381807709#2" to="-381802849#3" type="passenger"/>
    <trip id="246" depart="282.39" from="-381802857" to="218684411#3" type="passenger"/>
    <trip id="247" depart="283.54" from="420086339#2" to="381807711#1" type="passenger"/>
    <trip id="248" depart="284.68" from="899499301#3" to="899499305#0" type="passenger"/>
    <trip id="249" depart="285.83" from="381802857" to="781992368#11" type="passenger"/>
    <trip id="250" depart="286.98" from="782306024" to="218684411#2" type="passenger"/>
    <trip id="251" depart="288.13" from="420086340#0" to="519060522#3" type="passenger"/>
    <trip id="252" depart="289.28" from="-229028020#6" to="-218684411#2" type="passenger"/>
    <trip id="253" depart="290.42" from="381807711#0" to="381802855" type="passenger"/>
    <trip id="254" depart="291.57" from="519060522#2" to="899499305#1" type="passenger"/>
    <trip id="255" depart="292.72" from="117770558#0" to="-229028020#5" type="passenger"/>
    <trip id="256" depart="293.87" from="381807707" to="-229028020#2" type="passenger"/>
    <trip id="257" depart="295.01" from="519060520#0" to="519060522#4" type="passenger"/>
    <trip id="258" depart="296.16" from="-420090510#5" to="420086339#1" type="passenger"/>
    <trip id="259" depart="297.31" from="-381802849#3" to="-519060523#3" type="passenger"/>
    <trip id="260" depart="298.46" from="-899499300" to="781992370" type="passenger"/>
    <trip id="261" depart="299.61" from="519060522#3" to="-229028020#8" type="passenger"/>
    <trip id="262" depart="300.75" from="117770549#0" to="781992367#1" type="passenger"/>
    <trip id="263" depart="301.90" from="-381807707" to="381802851#1" type="passenger"/>
    <trip id="264" depart="303.05" from="-519060521" to="-218684411#4" type="passenger"/>
    <trip id="265" depart="304.20" from="-117770552#0" to="-899499303#1" type="passenger"/>
    <trip id="266" depart="305.35" from="-218684411#3" to="381807683#3" type="passenger"/>
    <trip id="267" depart="306.49" from="420086339#1" to="420086340#0" type="passenger"/>
    <trip id="268" depart="307.64" from="117770562#2" to="381802873" type="passenger"/>
    <trip id="269" depart="308.79" from="781992368#11" to="-519060520#0" type="passenger"/>
    <trip id="270" depart="309.94" from="381802849#5" to="-381807683#0" type="passenger"/>
    <trip id="271" depart="311.09" from="381807703#1" to="908057245" type="passenger"/>
    <trip id="272" depart="312.23" from="-519060523#3" to="381807710#0" type="passenger"/>
    <trip id="273" depart="313.38" from="-229028020#2" to="-420080604#0" type="passenger"/>
    <trip id="274" depart="314.53" from="-899499303#1" to="420090510#4" type="passenger"/>
    <trip id="275" depart="315.68" from="218684411#4" to="-229028020#3" type="passenger"/>
    <trip id="276" depart="316.83" from="381807683#1" to="-229028020#1" type="passenger"/>
    <trip id="277" depart="317.97" from="-519060523#3" to="899499301#0" type="passenger"/>
    <trip id="278" depart="319.12" from="1199502738#2" to="-117770538#0" type="passenger"/>
    <trip id="279" depart="320.27" from="-420080604#1" to="-420086339#2" type="passenger"/>
    <trip id="280" depart="321.42" from="-381807688#0" to="420090510#1" type="passenger"/>
    <trip id="281" depart="322.56" from="-420086340#3" to="381807707" type="passenger"/>
    <trip id="282" depart="323.71" from="229028020#3" to="781992368#4" type="passenger"/>
    <trip id="283" depart="324.86" from="-612506388#0" to="-117770533" type="passenger"/>
    <trip id="284" depart="326.01" from="-117770562#2" to="117770558#1" type="passenger"/>
    <trip id="285" depart="327.16" from="-381802867" to="908057245" type="passenger"/>
    <trip id="286" depart="328.30" from="229028020#5" to="519060522#3" type="passenger"/>
    <trip id="287" depart="329.45" from="381802873" to="381802855" type="passenger"/>
    <trip id="288" depart="330.60" from="781992367#1" to="-117770552#0" type="passenger"/>
    <trip id="289" depart="331.75" from="-781992371#0" to="381807702#1" type="passenger"/>
    <trip id="290" depart="332.90" from="-519060523#2" to="782303556" type="passenger"/>
    <trip id="291" depart="334.04" from="-420090510#6" to="420080604#2" type="passenger"/>
    <trip id="292" depart="335.19" from="218684411#3" to="218684411#4" type="passenger"/>
    <trip id="293" depart="336.34" from="781992368#0" to="899499301#3" type="passenger"/>
    <trip id="294" depart="337.49" from="218684411#3" to="-381802849#6" type="passenger"/>
    <trip id="295" depart="338.64" from="420090510#3" to="381802857" type="passenger"/>
    <trip id="296" depart="339.78" from="117770558#1" to="218684411#4" type="passenger"/>
    <trip id="297" depart="340.93" from="-788411962#0" to="-381807703#1" type="passenger"/>
    <trip id="298" depart="342.08" from="117770539" to="381807711#0" type="passenger"/>
    <trip id="299" depart="343.23" from="-229028020#6" to="-420080604#0" type="passenger"/>
    <trip id="300" depart="344.38" from="-420090510#5" to="420090510#5" type="passenger"/>
    <trip id="301" depart="345.52" from="-899499301#0" to="-381807683#2" type="passenger"/>
    <trip id="302" depart="346.67" from="-420090510#1" to="-117770552#0" type="passenger"/>
    <trip id="303" depart="347.82" from="117770562#0" to="117770549#1" type="passenger"/>
    <trip id="304" depart="348.97" from="-899499301#0" to="381807688#0" type="passenger"/>
    <trip id="305" depart="350.11" from="381802849#3" to="-519060523#0" type="passenger"/>
    <trip id="306" depart="351.26" from="381807707" to="-381802857" type="passenger"/>
    <trip id="307" depart="352.41" from="381807688#2" to="-899499301#0" type="passenger"/>
    <trip id="308" depart="353.56" from="420090510#0" to="781992367#1" type="passenger"/>
    <trip id="309" depart="354.71" from="117770558#1" to="-229028020#7" type="passenger"/>
    <trip id="310" depart="355.85" from="381807683#3" to="-117770538#0" type="passenger"/>
    <trip id="311" depart="357.00" from="-229028020#4" to="-381807703#1" type="passenger"/>
    <trip id="312" depart="358.15" from="420093962#0" to="-807006785#0" type="passenger"/>
    <trip id="313" depart="359.30" from="381802849#4" to="-117770538#1" type="passenger"/>
    <trip id="314" depart="360.45" from="807006809" to="117770535#1" type="passenger"/>
    <trip id="315" depart="361.59" from="-229028020#6" to="229028020#9" type="passenger"/>
    <trip id="316" depart="362.74" from="781992368#2" to="117770552#1" type="passenger"/>
    <trip id="317" depart="363.89" from="381807683#2" to="-229028020#5" type="passenger"/>
    <trip id="318" depart="365.04" from="-381807683#3" to="-519060523#0" type="passenger"/>
    <trip id="319" depart="366.19" from="-117770562#3" to="381802865#0" type="passenger"/>
    <trip id="320" depart="367.33" from="-117770538#1" to="117770552#0" type="passenger"/>
    <trip id="321" depart="368.48" from="381807703#0" to="-381802851#2" type="passenger"/>