<?xml version="1.0" encoding="UTF-8"?>

<!-- generated on 2026-04-17 14:37:00.039739 by Eclipse SUMO randomTrips.py v1.26.0
<configuration>
    <net-file value="/Users/junlee/Desktop/2026-1/js/result/veh_sensitivity_short_cw3_20260417_143049/peak_x1p5_cw3_seed3_20min/sumo_nets/cw_9494/network.net.xml"/>
    <output-trip-file value="/Users/junlee/Desktop/2026-1/js/result/veh_sensitivity_short_cw3_20260417_143049/peak_x1p5_cw3_seed3_20min/sumo_nets/cw_9494/routes_seed43.trips.xml"/>
    <route-file value="/Users/junlee/Desktop/2026-1/js/result/veh_sensitivity_short_cw3_20260417_143049/peak_x1p5_cw3_seed3_20min/sumo_nets/cw_9494/routes_seed43.rou.xml"/>
    <vehicle-class value="passenger"/>
    <seed value="43"/>
    <end value="1200.0"/>
    <period value="1.1892568576960265"/>
</configuration>
-->

<routes xmlns:xsi="http://www.w3.org/2001/XMLSchema-instance" xsi:noNamespaceSchemaLocation="http://sumo.dlr.de/xsd/routes_file.xsd">
    <vType id="passenger" vClass="passenger"/>
    <trip id="0" depart="0.00" from="-117770562#3" to="381807711#1" type="passenger"/>
    <trip id="1" depart="1.19" from="-381802857" to="117770552#0" type="passenger"/>
    <trip id="2" depart="2.38" from="381807702#1" to="519060522#0" type="passenger"/>
    <trip id="3" depart="3.57" from="117770538#1" to="117770562#3" type="passenger"/>
    <trip id="4" depart="4.76" from="-117770552#0" to="117770535#0" type="passenger"/>
    <trip id="5" depart="5.95" from="-788411962#1" to="781992368#10" type="passenger"/>
    <trip id="6" depart="7.14" from="229028020#2" to="420090510#1" type="passenger"/>
    <trip id="7" depart="8.32" from="117770535#0" to="-381807683#2" type="passenger"/>
    <trip id="8" depart="9.51" from="1199502738#0" to="117770562#3" type="passenger"/>
    <trip id="9" depart="10.70" from="420090510#0" to="381802851#1" type="passenger"/>
    <trip id="10" depart="11.89" from="117770562#3" to="381802849#2" type="passenger"/>
    <trip id="11" depart="13.08" from="-229028020#2" to="896413216#1" type="passenger"/>
    <trip id="12" depart="14.27" from="519060523#1" to="-420090510#1" type="passenger"/>
    <trip id="13" depart="15.46" from="781992368#8" to="229028020#1" type="passenger"/>
    <trip id="14" depart="16.65" from="-381802849#2" to="781992368#11" type="passenger"/>
    <trip id="15" depart="17.84" from="381807703#1" to="-229028020#6" type="passenger"/>
    <trip id="16" depart="19.03" from="781992370" to="-519060523#1" type="passenger"/>
    <trip id="17" depart="20.22" from="218684411#2" to="381807711#2" type="passenger"/>
    <trip id="18" depart="21.41" from="-381807683#3" to="781992368#0" type="passenger"/>
    <trip id="19" depart="22.60" from="420090510#3" to="-117770562#3" type="passenger"/>
    <trip id="20" depart="23.79" from="381802849#3" to="-788411962#1" type="passenger"/>
    <trip id="21" depart="24.97" from="-381807703#1" to="381802851#3" type="passenger"/>
    <trip id="22" depart="26.16" from="899499301#3" to="229028020#7" type="passenger"/>
    <trip id="23" depart="27.35" from="-381802849#4" to="117770562#2" type="passenger"/>
    <trip id="24" depart="28.54" from="420090510#3" to="899499300" type="passenger"/>
    <trip id="25" depart="29.73" from="381807711#2" to="-117770562#1" type="passenger"/>
    <trip id="26" depart="30.92" from="899499301#0" to="381802851#3" type="passenger"/>
    <trip id="27" depart="32.11" from="-229028020#7" to="-381802849#3" type="passenger"/>
    <trip id="28" depart="33.30" from="-229028020#8" to="381807705" type="passenger"/>
    <trip id="29" depart="34.49" from="-381802849#3" to="229028020#3" type="passenger"/>
    <trip id="30" depart="35.68" from="117770535#2" to="-117770562#0" type="passenger"/>
    <trip id="31" depart="36.87" from="-117770538#0" to="782306024" type="passenger"/>
    <trip id="32" depart="38.06" from="899499302" to="-381802849#3" type="passenger"/>
    <trip id="33" depart="39.25" from="420080604#1" to="899499305#0" type="passenger"/>
    <trip id="34" depart="40.43" from="781992371#0" to="781992370" type="passenger"/>
    <trip id="35" depart="41.62" from="-612506388#0" to="420080604#2" type="passenger"/>
    <trip id="36" depart="42.81" from="117770562#1" to="896413216#0" type="passenger"/>
    <trip id="37" depart="44.00" from="381807710#0" to="781992367#1" type="passenger"/>
    <trip id="38" depart="45.19" from="781992368#0" to="-871052107#0" type="passenger"/>
    <trip id="39" depart="46.38" from="381807711#1" to="-229028020#6" type="passenger"/>
    <trip id="40" depart="47.57" from="-381807709#2" to="896413216#0" type="passenger"/>
    <trip id="41" depart="48.76" from="-899499301#3" to="381807709#2" type="passenger"/>
    <trip id="42" depart="49.95" from="229028020#8" to="-420080604#2" type="passenger"/>
    <trip id="43" depart="51.14" from="381802849#2" to="788411962#1" type="passenger"/>
    <trip id="44" depart="52.33" from="-519060523#2" to="-781992371#0" type="passenger"/>
    <trip id="45" depart="53.52" from="-381807703#1" to="-381807683#3" type="passenger"/>
    <trip id="46" depart="54.71" from="519060522#4" to="381807715#1" type="passenger"/>
    <trip id="47" depart="55.90" from="899499301#0" to="381807707" type="passenger"/>
    <trip id="48" depart="57.08" from="899499299" to="-381807710#0" type="passenger"/>
    <trip id="49" depart="58.27" from="-381807705" to="-381807709#0" type="passenger"/>
    <trip id="50" depart="59.46" from="-381807711#2" to="117770549#1" type="passenger"/>
    <trip id="51" depart="60.65" from="-229028020#2" to="-117770552#0" type="passenger"/>
    <trip id="52" depart="61.84" from="229028020#2" to="381802857" type="passenger"/>
    <trip id="53" depart="63.03" from="1199502738#0" to="788411962#1" type="passenger"/>
    <trip id="54" depart="64.22" from="381802849#0" to="-420086339#0" type="passenger"/>
    <trip id="55" depart="65.41" from="-381802851#2" to="420090510#4" type="passenger"/>
    <trip id="56" depart="66.60" from="381807709#1" to="-381802849#3" type="passenger"/>
    <trip id="57" depart="67.79" from="381802857" to="-381807703#1" type="passenger"/>
    <trip id="58" depart="68.98" from="-908057245" to="-117770539" type="passenger"/>
    <trip id="59" depart="70.17" from="-420086340#1" to="-381802849#5" type="passenger"/>
    <trip id="60" depart="71.36" from="229028020#8" to="381807711#0" type="passenger"/>
    <trip id="61" depart="72.54" from="-381807709#0" to="-117770562#1" type="passenger"/>
    <trip id="62" depart="73.73" from="-420086340#3" to="381807711#2" type="passenger"/>
    <trip id="63" depart="74.92" from="-420090510#0" to="381807688#0" type="passenger"/>
    <trip id="64" depart="76.11" from="-229028020#5" to="381807711#2" type="passenger"/>
    <trip id="65" depart="77.30" from="-381802855" to="-381807710#0" type="passenger"/>
    <trip id="66" depart="78.49" from="420080604#0" to="117770558#1" type="passenger"/>
    <trip id="67" depart="79.68" from="381807683#1" to="-420086340#2" type="passenger"/>
    <trip id="68" depart="80.87" from="381807691" to="-420090510#3" type="passenger"/>
    <trip id="69" depart="82.06" from="117770558#0" to="117770538#0" type="passenger"/>
    <trip id="70" depart="83.25" from="782306024" to="420090510#1" type="passenger"/>
    <trip id="71" depart="84.44" from="229028020#2" to="781992368#0" type="passenger"/>
    <trip id="72" depart="85.63" from="381802851#1" to="420086339#1" type="passenger"/>
    <trip id="73" depart="86.82" from="1199502738#2" to="381802849#2" type="passenger"/>
    <trip id="74" depart="88.01" from="381807683#1" to="519060523#1" type="passenger"/>
    <trip id="75" depart="89.19" from="381802849#6" to="-117770549#1" type="passenger"/>
    <trip id="76" depart="90.38" from="-381802849#3" to="781992368#9" type="passenger"/>
    <trip id="77" depart="91.57" from="381807709#1" to="782306024" type="passenger"/>
    <trip id="78" depart="92.76" from="781992368#9" to="-381807711#1" type="passenger"/>
    <trip id="79" depart="93.95" from="899499304#0" to="381802857" type="passenger"/>
    <trip id="80" depart="95.14" from="420080604#0" to="218684411#3" type="passenger"/>
    <trip id="81" depart="96.33" from="-420086340#0" to="117770558#3" type="passenger"/>
    <trip id="82" depart="97.52" from="117770549#0" to="-420090510#3" type="passenger"/>
    <trip id="83" depart="98.71" from="-612506388#1" to="117770538#0" type="passenger"/>
    <trip id="84" depart="99.90" from="-420086340#2" to="-381802849#6" type="passenger"/>
    <trip id="85" depart="101.09" from="519060521" to="-781992372" type="passenger"/>
    <trip id="86" depart="102.28" from="381807709#1" to="117770538#1" type="passenger"/>
    <trip id="87" depart="103.47" from="-519060520#0" to="519060522#0" type="passenger"/>
    <trip id="88" depart="104.65" from="-420080604#1" to="117770552#0" type="passenger"/>
    <trip id="89" depart="105.84" from="-788411962#1" to="899499305#1" type="passenger"/>
    <trip id="90" depart="107.03" from="-420080604#1" to="381802851#1" type="passenger"/>
    <trip id="91" depart="108.22" from="218684411#2" to="-117770562#2" type="passenger"/>
    <trip id="92" depart="109.41" from="-381807702#1" to="781992370" type="passenger"/>
    <trip id="93" depart="110.60" from="420090510#5" to="-381807709#0" type="passenger"/>
    <trip id="94" depart="111.79" from="-381807688#0" to="896413216#1" type="passenger"/>
    <trip id="95" depart="112.98" from="381802849#2" to="420080604#1" type="passenger"/>
    <trip id="96" depart="114.17" from="781992371#1" to="-420080604#2" type="passenger"/>
    <trip id="97" depart="115.36" from="117770562#1" to="788411962#1" type="passenger"/>
    <trip id="98" depart="116.55" from="-381807703#1" to="-420080604#1" type="passenger"/>
    <trip id="99" depart="117.74" from="781992368#4" to="781992367#1" type="passenger"/>
    <trip id="100" depart="118.93" from="1199502738#1" to="-381802849#5" type="passenger"/>
    <trip id="101" depart="120.11" from="519060523#0" to="-420090510#5" type="passenger"/>
    <trip id="102" depart="121.30" from="420086340#0" to="-420080604#1" type="passenger"/>
    <trip id="103" depart="122.49" from="-899499300" to="-807006785#0" type="passenger"/>
    <trip id="104" depart="123.68" from="117770535#1" to="117770549#1" type="passenger"/>
    <trip id="105" depart="124.87" from="117770552#0" to="381807688#0" type="passenger"/>
    <trip id="106" depart="126.06" from="-381802849#2" to="381807709#0" type="passenger"/>
    <trip id="107" depart="127.25" from="-420090510#4" to="381807705" type="passenger"/>
    <trip id="108" depart="128.44" from="-381807709#2" to="381807711#1" type="passenger"/>
    <trip id="109" depart="129.63" from="381807703#1" to="229028020#5" type="passenger"/>
    <trip id="110" depart="130.82" from="-782303556" to="-229028020#3" type="passenger"/>
    <trip id="111" depart="132.01" from="-519060523#3" to="-117770562#1" type="passenger"/>
    <trip id="112" depart="133.20" from="781992368#8" to="612506388#0" type="passenger"/>
    <trip id="113" depart="134.39" from="-381807709#1" to="781992368#11" type="passenger"/>
    <trip id="114" depart="135.58" from="-899499303#1" to="-218684411#2" type="passenger"/>
    <trip id="115" depart="136.76" from="381807683#0" to="-229028020#3" type="passenger"/>
    <trip id="116" depart="137.95" from="781992368#9" to="807006809" type="passenger"/>
    <trip id="117" depart="139.14" from="381802851#2" to="-381807715#2" type="passenger"/>
    <trip id="118" depart="140.33" from="420090510#1" to="-117770562#0" type="passenger"/>
    <trip id="119" depart="141.52" from="-381802849#3" to="-420090510#4" type="passenger"/>
    <trip id="120" depart="142.71" from="-229028020#5" to="781992368#7" type="passenger"/>
    <trip id="121" depart="143.90" from="381807691" to="519060522#3" type="passenger"/>
    <trip id="122" depart="145.09" from="381807688#0" to="-381807710#0" type="passenger"/>
    <trip id="123" depart="146.28" from="-420090510#1" to="381802855" type="passenger"/>
    <trip id="124" depart="147.47" from="420093962#0" to="381802873" type="passenger"/>
    <trip id="125" depart="148.66" from="-519060523#0" to="519060522#1" type="passenger"/>
    <trip id="126" depart="149.85" from="-899499303#0" to="381802873" type="passenger"/>
    <trip id="127" depart="151.04" from="117770539" to="381802849#6" type="passenger"/>
    <trip id="128" depart="152.22" from="-381807709#1" to="117770535#1" type="passenger"/>
    <trip id="129" depart="153.41" from="519060523#0" to="117770558#3" type="passenger"/>
    <trip id="130" depart="154.60" from="-117770549#1" to="519060523#0" type="passenger"/>
    <trip id="131" depart="155.79" from="381802849#0" to="420090510#5" type="passenger"/>
    <trip id="132" depart="156.98" from="-381802849#4" to="117770538#0" type="passenger"/>
    <trip id="133" depart="158.17" from="117770549#0" to="-381802849#2" type="passenger"/>
    <trip id="134" depart="159.36" from="381802865#0" to="-420080604#0" type="passenger"/>
    <trip id="135" depart="160.55" from="218684411#0" to="-381807711#1" type="passenger"/>
    <trip id="136" depart="161.74" from="420086340#1" to="-117770538#1" type="passenger"/>
    <trip id="137" depart="162.93" from="-519060521" to="-229028020#8" type="passenger"/>
    <trip id="138" depart="164.12" from="-229028020#8" to="-117770538#1" type="passenger"/>
    <trip id="139" depart="165.31" from="218684411#0" to="-229028020#1" type="passenger"/>
    <trip id="140" depart="166.50" from="-381802849#4" to="117770535#0" type="passenger"/>
    <trip id="141" depart="167.69" from="381807703#1" to="-381807703#1" type="passenger"/>
    <trip id="142" depart="168.87" from="381807688#0" to="229028020#9" type="passenger"/>
    <trip id="143" depart="170.06" from="807006785#0" to="519060522#4" type="passenger"/>
    <trip id="144" depart="171.25" from="781992368#7" to="-519060521" type="passenger"/>
    <trip id="145" depart="172.44" from="-117770552#1" to="420086339#1" type="passenger"/>
    <trip id="146" depart="173.63" from="-229028020#8" to="381802857" type="passenger"/>
    <trip id="147" depart="174.82" from="-420090510#6" to="-781992372" type="passenger"/>
    <trip id="148" depart="176.01" from="-420093962#1" to="-381802849#3" type="passenger"/>
    <trip id="149" depart="177.20" from="381807683#2" to="-420090510#4" type="passenger"/>
    <trip id="150" depart="178.39" from="-420086340#3" to="-420093962#0" type="passenger"/>
    <trip id="151" depart="179.58" from="-781992372" to="519060522#0" type="passenger"/>
    <trip id="152" depart="180.77" from="-381807711#0" to="-381802849#2" type="passenger"/>
    <trip id="153" depart="181.96" from="-519060523#3" to="381802849#1" type="passenger"/>
    <trip id="154" depart="183.15" from="-420090510#3" to="-229028020#9" type="passenger"/>
    <trip id="155" depart="184.33" from="-782303556" to="899499301#3" type="passenger"/>
    <trip id="156" depart="185.52" from="781992368#9" to="117770538#0" type="passenger"/>
    <trip id="157" depart="186.71" from="117770533" to="-381807683#2" type="passenger"/>
    <trip id="158" depart="187.90" from="381807702#1" to="420086339#1" type="passenger"/>
    <trip id="159" depart="189.09" from="-420086340#0" to="381802873" type="passenger"/>
    <trip id="160" depart="190.28" from="-381802849#1" to="-519060520#0" type="passenger"/>
    <trip id="161" depart="191.47" from="-420090510#4" to="519060522#1" type="passenger"/>
    <trip id="162" depart="192.66" from="381802855" to="218684411#2" type="passenger"/>
    <trip id="163" depart="193.85" from="117770535#1" to="229028020#7" type="passenger"/>
    <trip id="164" depart="195.04" from="117770558#0" to="-420080604#2" type="passenger"/>
    <trip id="165" depart="196.23" from="519060523#0" to="519060522#1" type="passenger"/>
    <trip id="166" depart="197.42" from="-807006809" to="-899499301#0" type="passenger"/>
    <trip id="167" depart="198.61" from="807006785#0" to="-117770549#0" type="passenger"/>
    <trip id="168" depart="199.80" from="420086340#2" to="-381807683#1" type="passenger"/>
    <trip id="169" depart="200.98" from="-381807705" to="-781992371#1" type="passenger"/>
    <trip id="170" depart="202.17" from="381802857" to="-519060521" type="passenger"/>
    <trip id="171" depart="203.36" from="1199502738#1" to="218684411#2" type="passenger"/>
    <trip id="172" depart="204.55" from="788411962#1" to="381802849#3" type="passenger"/>
    <trip id="173" depart="205.74" from="-420086340#3" to="381807683#2" type="passenger"/>
    <trip id="174" depart="206.93" from="229028020#4" to="-420090510#4" type="passenger"/>
    <trip id="175" depart="208.12" from="381807715#2" to="-117770538#1" type="passenger"/>
    <trip id="176" depart="209.31" from="899499304#0" to="781992368#7" type="passenger"/>
    <trip id="177" depart="210.50" from="-229028020#2" to="381807715#2" type="passenger"/>
    <trip id="178" depart="211.69" from="-381802851#2" to="899499305#0" type="passenger"/>
    <trip id="179" depart="212.88" from="117770538#1" to="420086340#3" type="passenger"/>
    <trip id="180" depart="214.07" from="-420086340#0" to="381807688#2" type="passenger"/>
    <trip id="181" depart="215.26" from="-420086340#2" to="-381807683#1" type="passenger"/>
    <trip id="182" depart="216.44" from="-218684411#3" to="-381807683#0" type="passenger"/>
    <trip id="183" depart="217.63" from="381807709#1" to="-381802849#5" type="passenger"/>
    <trip id="184" depart="218.82" from="519060522#3" to="-782306024" type="passenger"/>
    <trip id="185" depart="220.01" from="899499304#1" to="-788411962#1" type="passenger"/>
    <trip id="186" depart="221.20" from="117770538#0" to="-782306024" type="passenger"/>
    <trip id="187" depart="222.39" from="-229028020#7" to="807006809" type="passenger"/>
    <trip id="188" depart="223.58" from="381802849#3" to="420090510#3" type="passenger"/>
    <trip id="189" depart="224.77" from="-381802873" to="117770558#3" type="passenger"/>
    <trip id="190" depart="225.96" from="-420090510#3" to="-420086339#2" type="passenger"/>
    <trip id="191" depart="227.15" from="-899499300" to="381802873" type="passenger"/>
    <trip id="192" depart="228.34" from="117770539" to="381807711#1" type="passenger"/>
    <trip id="193" depart="229.53" from="899499304#1" to="381802849#6" type="passenger"/>
    <trip id="194" depart="230.72" from="519060520#1" to="899499300" type="passenger"/>
    <trip id="195" depart="231.91" from="899499301#3" to="-781992371#0" type="passenger"/>
    <trip id="196" depart="233.09" from="519060523#1" to="381807711#1" type="passenger"/>
    <trip id="197" depart="234.28" from="-117770552#0" to="519060523#1" type="passenger"/>
    <trip id="198" depart="235.47" from="781992370" to="781992371#1" type="passenger"/>
    <trip id="199" depart="236.66" from="-612506388#0" to="420086339#2" type="passenger"/>
    <trip id="200" depart="237.85" from="519060522#4" to="117770538#0" type="passenger"/>
    <trip id="201" depart="239.04" from="381807683#0" to="-807006809" type="passenger"/>
    <trip id="202" depart="240.23" from="788411962#1" to="229028020#1" type="passenger"/>
    <trip id="203" depart="241.42" from="381802849#2" to="-807006785#2" type="passenger"/>
    <trip id="204" depart="242.61" from="-519060523#0" to="117770562#1" type="passenger"/>
    <trip id="205" depart="243.80" from="-229028020#7" to="-519060520#0" type="passenger"/>
    <trip id="206" depart="244.99" from="-381802849#4" to="117770558#2" type="passenger"/>
    <trip id="207" depart="246.18" from="-519060523#2" to="-807006785#2" type="passenger"/>
    <trip id="208" depart="247.37" from="-381807710#0" to="-117770538#1" type="passenger"/>
    <trip id="209" depart="248.55" from="381802849#1" to="-117770562#0" type="passenger"/>
    <trip id="210" depart="249.74" from="229028020#7" to="788411962#1" type="passenger"/>
    <trip id="211" depart="250.93" from="-229028020#2" to="117770558#1" type="passenger"/>
    <trip id="212" depart="252.12" from="519060523#1" to="-381807711#2" type="passenger"/>
    <trip id="213" depart="253.31" from="-381802851#2" to="-218684411#2" type="passenger"/>
    <trip id="214" depart="254.50" from="381807709#0" to="420090510#4" type="passenger"/>
    <trip id="215" depart="255.69" from="-908057245" to="-781992371#0" type="passenger"/>
    <trip id="216" depart="256.88" from="899499304#0" to="-420080604#0" type="passenger"/>
    <trip id="217" depart="258.07" from="519060520#1" to="519060522#3" type="passenger"/>
    <trip id="218" depart="259.26" from="-519060523#2" to="782303556" type="passenger"/>
    <trip id="219" depart="260.45" from="420086339#1" to="381802867" type="passenger"/>
    <trip id="220" depart="261.64" from="519060523#2" to="381807709#0" type="passenger"/>
    <trip id="221" depart="262.83" from="781992368#10" to="-781992371#1" type="passenger"/>
    <trip id="222" depart="264.02" from="117770535#0" to="-420093962#0" type="passenger"/>
    <trip id="223" depart="265.20" from="519060521" to="-781992371#1" type="passenger"/>
    <trip id="224" depart="266.39" from="-899499304#0" to="381802849#1" type="passenger"/>
    <trip id="225" depart="267.58" from="-229028020#8" to="781992367#1" type="passenger"/>
    <trip id="226" depart="268.77" from="381802851#1" to="-117770562#2" type="passenger"/>
    <trip id="227" depart="269.96" from="117770533" to="519060522#2" type="passenger"/>
    <trip id="228" depart="271.15" from="519060520#1" to="420086340#2" type="passenger"/>
    <trip id="229" depart="272.34" from="420080604#0" to="218684411#2" type="passenger"/>
    <trip id="230" depart="273.53" from="-229028020#8" to="-781992371#1" type="passenger"/>
    <trip id="231" depart="274.72" from="420086339#0" to="-117770549#1" type="passenger"/>
    <trip id="232" depart="275.91" from="-420080604#2" to="-117770539" type="passenger"/>
    <trip id="233" depart="277.10" from="-519060523#2" to="-519060523#0" type="passenger"/>
    <trip id="234" depart="278.29" from="117770558#0" to="-381807683#2" type="passenger"/>
    <trip id="235" depart="279.48" from="229028020#2" to="-381802849#1" type="passenger"/>
    <trip id="236" depart="280.66" from="420090510#5" to="612506388#0" type="passenger"/>
    <trip id="237" depart="281.85" from="-899499303#1" to="781992370" type="passenger"/>
    <trip id="238" depart="283.04" from="381807688#2" to="229028020#9" type="passenger"/>
    <trip id="239" depart="284.23" from="381807683#0" to="117770538#0" type="passenger"/>
    <trip id="240" depart="285.42" from="-381802855" to="782303556" type="passenger"/>
    <trip id="241" depart="286.61" from="-381807711#2" to="781992368#7" type="passenger"/>
    <trip id="242" depart="287.80" from="381802855" to="-782306024" type="passenger"/>
    <trip id="243" depart="288.99" from="-807006809" to="-519060523#3" type="passenger"/>
    <trip id="244" depart="290.18" from="781992368#7" to="896413216#1" type="passenger"/>
    <trip id="245" depart="291.37" from="-782303556" to="-381802849#4" type="passenger"/>
    <trip id="246" depart="292.56" from="218684411#3" to="117770552#0" type="passenger"/>
    <trip id="247" depart="293.75" from="117770535#2" to="381802851#3" type="passenger"/>
    <trip id="248" depart="294.94" from="381807703#1" to="229028020#7" type="passenger"/>
    <trip id="249" depart="296.12" from="-117770538#0" to="381802849#1" type="passenger"/>
    <trip id="250" depart="297.31" from="788411962#0" to="381807709#2" type="passenger"/>
    <trip id="251" depart="298.50" from="1199502738#1" to="-807006785#2" type="passenger"/>
    <trip id="252" depart="299.69" from="-381807711#0" to="117770549#1" type="passenger"/>
    <trip id="253" depart="300.88" from="899499299" to="-381802855" type="passenger"/>
    <trip id="254" depart="302.07" from="381802855" to="229028020#1" type="passenger"/>
    <trip id="255" depart="303.26" from="-229028020#9" to="-381807715#2" type="passenger"/>
    <trip id="256" depart="304.45" from="-420086340#0" to="-229028020#5" type="passenger"/>
    <trip id="257" depart="305.64" from="-229028020#9" to="519060523#3" type="passenger"/>
    <trip id="258" depart="306.83" from="-519060520#0" to="381807707" type="passenger"/>
    <trip id="259" depart="308.02" from="117770538#1" to="-117770552#1" type="passenger"/>
    <trip id="260" depart="309.21" from="-229028020#5" to="-381802849#3" type="passenger"/>
    <trip id="261" depart="310.40" from="519060522#1" to="381807711#2" type="passenger"/>
    <trip id="262" depart="311.59" from="899499300" to="381807711#0" type="passenger"/>
    <trip id="263" depart="312.77" from="-381807711#2" to="381802849#4" type="passenger"/>
    <trip id="264" depart="313.96" from="381807688#2" to="-420086340#1" type="passenger"/>
    <trip id="265" depart="315.15" from="-899499303#1" to="519060522#0" type="passenger"/>
    <trip id="266" depart="316.34" from="-381807709#2" to="-117770552#0" type="passenger"/>
    <trip id="267" depart="317.53" from="781992368#9" to="-519060523#3" type="passenger"/>
    <trip id="268" depart="318.72" from="381802849#6" to="899499303#0" type="passenger"/>
    <trip id="269" depart="319.91" from="-381807707" to="-420086339#0" type="passenger"/>
    <trip id="270" depart="321.10" from="-612506388#0" to="-420086340#1" type="passenger"/>
    <trip id="271" depart="322.29" from="117770562#1" to="-117770549#0" type="passenger"/>
    <trip id="272" depart="323.48" from="519060521" to="908057245" type="passenger"/>
    <trip id="273" depart="324.67" from="-381807710#0" to="-899499300" type="passenger"/>
    <trip id="274" depart="325.86" from="-899499304#0" to="781992368#2" type="passenger"/>
    <trip id="275" depart="327.05" from="-381802849#5" to="381802855" type="passenger"/>
    <trip id="276" depart="328.23" from="-229028020#2" to="-899499303#1" type="passenger"/>
    <trip id="277" depart="329.42" from="-381807707" to="519060523#2" type="passenger"/>
    <trip id="278" depart="330.61" from="-899499301#3" to="612506388#0" type="passenger"/>
    <trip id="279" depart="331.80" from="381802849#3" to="420086340#3" type="passenger"/>
    <trip id="280" depart="332.99" from="420080604#1" to="519060522#2" type="passenger"/>
    <trip id="281" depart="334.18" from="-871052107#0" to="-381807683#2" type="passenger"/>
    <trip id="282" depart="335.37" from="-381807715#2" to="519060523#0" type="passenger"/>
    <trip id="283" depart="336.56" from="-381802849#5" to="420090510#4" type="passenger"/>
    <trip id="284" depart="337.75" from="-218684411#3" to="-117770539" type="passenger"/>
    <trip id="285" depart="338.94" from="420080604#1" to="420086339#2" type="passenger"/>
    <trip id="286" depart="340.13" from="420090510#5" to="-788411962#1" type="passenger"/>
    <trip id="287" depart="341.32" from="381807705" to="420086340#1" type="passenger"/>
    <trip id="288" depart="342.51" from="-381807715#1" to="-381802849#2" type="passenger"/>
    <trip id="289" depart="343.70" from="-229028020#2" to="-420090510#4" type="passenger"/>
    <trip id="290" depart="344.88" from="420090510#1" to="-381807711#0" type="passenger"/>
    <trip id="291" depart="346.07" from="519060523#0" to="381807688#2" type="passenger"/>
    <trip id="292" depart="347.26" from="899499301#3" to="420093962#0" type="passenger"/>
    <trip id="293" depart="348.45" from="-218684411#3" to="-420086339#2" type="passenger"/>
    <trip id="294" depart="349.64" from="-381802849#4" to="-519060523#1" type="passenger"/>
    <trip id="295" depart="350.83" from="381802849#1" to="899499303#0" type="passenger"/>
    <trip id="296" depart="352.02" from="781992368#0" to="-519060520#0" type="passenger"/>
    <trip id="297" depart="353.21" from="-117770552#0" to="-420086340#1" type="passenger"/>
    <trip id="298" depart="354.40" from="381807711#2" to="-420090510#4" type="passenger"/>
    <trip id="299" depart="355.59" from="-420090510#6" to="-381802849#5" type="passenger"/>
    <trip id="300" depart="356.78" from="-381807711#1" to="-781992371#1" type="passenger"/>
    <trip id="301" depart="357.97" from="117770558#0" to="117770535#1" type="passenger"/>
    <trip id="302" depart="359.16" from="381802849#6" to="420080604#2" type="passenger"/>
    <trip id="303" depart="360.34" from="-117770549#0" to="-381802849#4" type="passenger"/>
    <trip id="304" depart="361.53" from="420086339#1" to="420090510#0" type="passenger"/>
    <trip id="305" depart="362.72" from="-420090510#5" to="218684411#2" type="passenger"/>
    <trip id="306" depart="363.91" from="519060523#1" to="420086340#0" type="passenger"/>
    <trip id="307" depart="365.10" from="-117770552#0" to="420086339#1" type="passenger"/>
    <trip id="308" depart="366.29" from="381802849#0" to="781992371#0" type="passenger"/>
    <trip id="309" depart="367.48" from="-229028020#1" to="-117770533" type="passenger"/>
    <trip id="310" depart="368.67" from="-781992371#0" to="229028020#8" type="passenger"/>
    <trip id="311" depart="369.86" from="420086340#1" to="-519060520#0" type="passenger"/>
    <trip id="312" depart="371.05" from="-229028020#7" to="381802851#1" type="passenger"/>
    <trip id="313" depart="372.24" from="-229028020#5" to="-117770552#1" type="passenger"/>
    <trip id="314" depart="373.43" from="-381807683#2" to="899499301#3" type="passenger"/>
    <trip id="315" depart="374.62" from="381807705" to="420090510#4" type="passenger"/>
    <trip id="316" depart="375.81" from="381807703#1" to="-519060520#0" type="passenger"/>
    <trip id="317" depart="376.99" from="-117770552#1" to="-117770538#1" type="passenger"/>
    <trip id="318" depart="378.18" from="-381802855" to="-788411962#0" type="passenger"/>
    <trip id="319" depart="379.37" from="218684411#0" to="420090510#0" type="passenger"/>
    <trip id="320" depart="380.56" from="807006785#2" to="612506388#1" type="passenger"/>
    <trip id="321" depart="381.75" from="381802849#5" to="420080604#1" type="passenger"/>
    <trip id="322" depart="382.94" from="899499299" to="896413216#1" type="passenger"/>