<?xml version="1.0" encoding="UTF-8"?>

<!-- generated on 2026-04-17 14:36:58.714470 by Eclipse SUMO randomTrips.py v1.26.0
<configuration>
    <net-file value="/Users/junlee/Desktop/2026-1/js/result/veh_sensitivity_short_cw3_20260417_143049/peak_x1p5_cw3_seed3_20min/sumo_nets/cw_9494/network.net.xml"/>
    <output-trip-file value="/Users/junlee/Desktop/2026-1/js/result/veh_sensitivity_short_cw3_20260417_143049/peak_x1p5_cw3_seed3_20min/sumo_nets/cw_9494/routes_seed42.trips.xml"/>
    <route-file value="/Users/junlee/Desktop/2026-1/js/result/veh_sensitivity_short_cw3_20260417_143049/peak_x1p5_cw3_seed3_20min/sumo_nets/cw_9494/routes_seed42.rou.xml"/>
    <vehicle-class value="passenger"/>
    <end value="1200.0"/>
    <period value="1.3109080774810509"/>
</configuration>
-->

<routes xmlns:xsi="http://www.w3.org/2001/XMLSchema-instance" xsi:noNamespaceSchemaLocation="http://sumo.dlr.de/xsd/routes_file.xsd">
    <vType id="passenger" vClass="passenger"/>
    <trip id="0" depart="0.00" from="381807683#1" to="-117770549#1" type="passenger"/>
    <trip id="1" depart="1.31" from="-420090510#0" to="-381807710#0" type="passenger"/>
    <trip id="2" depart="2.62" from="420080604#1" to="381807709#0" type="passenger"/>
    <trip id="3" depart="3.93" from="781992368#8" to="-229028020#4" type="passenger"/>
    <trip id="4" depart="5.24" from="-899499304#1" to="-117770552#0" type="passenger"/>
    <trip id="5" depart="6.55" from="-117770552#1" to="-381807703#0" type="passenger"/>
    <trip id="6" depart="7.87" from="381807683#3" to="229028020#6" type="passenger"/>
    <trip id="7" depart="9.18" from="-381807711#1" to="381802849#6" type="passenger"/>
    <trip id="8" depart="10.49" from="519060522#0" to="-117770538#0" type="passenger"/>
    <trip id="9" depart="11.80" from="519060521" to="381807711#1" type="passenger"/>
    <trip id="10" depart="13.11" from="-612506388#1" to="-381802857" type="passenger"/>
    <trip id="11" depart="14.42" from="899499299" to="-519060523#3" type="passenger"/>
    <trip id="12" depart="15.73" from="-229028020#9" to="-229028020#6" type="passenger"/>
    <trip id="13" depart="17.04" from="519060521" to="420086339#2" type="passenger"/>
    <trip id="14" depart="18.35" from="218684411#4" to="899499303#0" type="passenger"/>
    <trip id="15" depart="19.66" from="519060522#4" to="381802865#0" type="passenger"/>
    <trip id="16" depart="20.97" from="781992368#10" to="381802849#3" type="passenger"/>
    <trip id="17" depart="22.29" from="381807710#0" to="-117770562#2" type="passenger"/>
    <trip id="18" depart="23.60" from="-381807715#1" to="-420090510#0" type="passenger"/>
    <trip id="19" depart="24.91" from="-229028020#6" to="-381807711#1" type="passenger"/>
    <trip id="20" depart="26.22" from="-381802849#1" to="-420086340#0" type="passenger"/>
    <trip id="21" depart="27.53" from="381807683#0" to="-788411962#0" type="passenger"/>
    <trip id="22" depart="28.84" from="-788411962#0" to="-381807707" type="passenger"/>
    <trip id="23" depart="30.15" from="-420086340#2" to="896413216#0" type="passenger"/>
    <trip id="24" depart="31.46" from="381807683#3" to="381802855" type="passenger"/>
    <trip id="25" depart="32.77" from="-381807683#4" to="420086339#2" type="passenger"/>
    <trip id="26" depart="34.08" from="-381807683#2" to="-807006785#2" type="passenger"/>
    <trip id="27" depart="35.39" from="899499304#1" to="381807683#3" type="passenger"/>
    <trip id="28" depart="36.71" from="229028020#4" to="381807709#2" type="passenger"/>
    <trip id="29" depart="38.02" from="519060523#2" to="420093962#0" type="passenger"/>
    <trip id="30" depart="39.33" from="-381807715#1" to="-117770552#1" type="passenger"/>
    <trip id="31" depart="40.64" from="-519060521" to="-420086339#1" type="passenger"/>
    <trip id="32" depart="41.95" from="781992368#3" to="-519060520#0" type="passenger"/>
    <trip id="33" depart="43.26" from="381807683#4" to="-899499300" type="passenger"/>
    <trip id="34" depart="44.57" from="782306024" to="117770549#1" type="passenger"/>
    <trip id="35" depart="45.88" from="-420086340#2" to="-381807715#2" type="passenger"/>
    <trip id="36" depart="47.19" from="229028020#5" to="-420086339#0" type="passenger"/>
    <trip id="37" depart="48.50" from="381802849#1" to="781992371#1" type="passenger"/>
    <trip id="38" depart="49.81" from="-899499301#0" to="-381807709#1" type="passenger"/>
    <trip id="39" depart="51.13" from="908057245" to="218684411#2" type="passenger"/>
    <trip id="40" depart="52.44" from="-229028020#9" to="-117770562#2" type="passenger"/>
    <trip id="41" depart="53.75" from="-381802849#3" to="381802873" type="passenger"/>
    <trip id="42" depart="55.06" from="420093962#0" to="-899499304#1" type="passenger"/>
    <trip id="43" depart="56.37" from="-229028020#3" to="-807006809" type="passenger"/>
    <trip id="44" depart="57.68" from="908057245" to="229028020#2" type="passenger"/>
    <trip id="45" depart="58.99" from="899499301#3" to="781992368#2" type="passenger"/>
    <trip id="46" depart="60.30" from="-117770549#0" to="420080604#2" type="passenger"/>
    <trip id="47" depart="61.61" from="381807703#1" to="229028020#4" type="passenger"/>
    <trip id="48" depart="62.92" from="-420086340#2" to="381807683#3" type="passenger"/>
    <trip id="49" depart="64.23" from="-381802849#3" to="117770535#1" type="passenger"/>
    <trip id="50" depart="65.55" from="117770538#1" to="899499300" type="passenger"/>
    <trip id="51" depart="66.86" from="781992368#3" to="-420086339#0" type="passenger"/>
    <trip id="52" depart="68.17" from="117770562#2" to="-381807683#3" type="passenger"/>
    <trip id="53" depart="69.48" from="782306024" to="781992368#4" type="passenger"/>
    <trip id="54" depart="70.79" from="-420090510#6" to="381807683#3" type="passenger"/>
    <trip id="55" depart="72.10" from="381802851#1" to="-381802855" type="passenger"/>
    <trip id="56" depart="73.41" from="420086340#1" to="229028020#4" type="passenger"/>
    <trip id="57" depart="74.72" from="420090510#3" to="229028020#2" type="passenger"/>
    <trip id="58" depart="76.03" from="-117770538#0" to="-519060523#0" type="passenger"/>
    <trip id="59" depart="77.34" from="-117770552#0" to="807006809" type="passenger"/>
    <trip id="60" depart="78.65" from="781992368#3" to="519060523#3" type="passenger"/>
    <trip id="61" depart="79.97" from="-420093962#1" to="-218684411#2" type="passenger"/>
    <trip id="62" depart="81.28" from="-229028020#8" to="117770558#3" type="passenger"/>
    <trip id="63" depart="82.59" from="-229028020#4" to="420090510#3" type="passenger"/>
    <trip id="64" depart="83.90" from="420086340#2" to="-381802849#4" type="passenger"/>
    <trip id="65" depart="85.21" from="117770552#1" to="229028020#7" type="passenger"/>
    <trip id="66" depart="86.52" from="-420086340#2" to="781992368#7" type="passenger"/>
    <trip id="67" depart="87.83" from="-899499304#1" to="-381807707" type="passenger"/>
    <trip id="68" depart="89.14" from="218684411#4" to="420086339#2" type="passenger"/>
    <trip id="69" depart="90.45" from="-381807709#1" to="-420093962#0" type="passenger"/>
    <trip id="70" depart="91.76" from="117770535#1" to="218684411#3" type="passenger"/>
    <trip id="71" depart="93.07" from="-381802849#6" to="-381807710#0" type="passenger"/>
    <trip id="72" depart="94.39" from="-612506388#0" to="381802849#5" type="passenger"/>
    <trip id="73" depart="95.70" from="-381807715#1" to="-381807709#1" type="passenger"/>
    <trip id="74" depart="97.01" from="-381807715#1" to="782306024" type="passenger"/>
    <trip id="75" depart="98.32" from="781992368#0" to="-229028020#1" type="passenger"/>
    <trip id="76" depart="99.63" from="-420080604#1" to="381807707" type="passenger"/>
    <trip id="77" depart="100.94" from="-381807710#0" to="-381802849#4" type="passenger"/>
    <trip id="78" depart="102.25" from="807006809" to="381802849#2" type="passenger"/>
    <trip id="79" depart="103.56" from="519060521" to="-381807702#1" type="passenger"/>
    <trip id="80" depart="104.87" from="-899499304#1" to="117770552#1" type="passenger"/>
    <trip id="81" depart="106.18" from="420080604#0" to="381807709#0" type="passenger"/>
    <trip id="82" depart="107.49" from="899499304#0" to="-229028020#7" type="passenger"/>
    <trip id="83" depart="108.81" from="-899499301#3" to="-519060523#3" type="passenger"/>
    <trip id="84" depart="110.12" from="781992368#10" to="-420080604#0" type="passenger"/>
    <trip id="85" depart="111.43" from="-381807705" to="117770538#1" type="passenger"/>
    <trip id="86" depart="112.74" from="-899499304#1" to="-420086340#0" type="passenger"/>
    <trip id="87" depart="114.05" from="117770535#2" to="781992368#2" type="passenger"/>
    <trip id="88" depart="115.36" from="229028020#3" to="-117770562#3" type="passenger"/>
    <trip id="89" depart="116.67" from="908057245" to="612506388#0" type="passenger"/>
    <trip id="90" depart="117.98" from="899499301#3" to="807006809" type="passenger"/>
    <trip id="91" depart="119.29" from="117770558#1" to="-381807709#0" type="passenger"/>
    <trip id="92" depart="120.60" from="-899499301#0" to="-218684411#2" type="passenger"/>
    <trip id="93" depart="121.91" from="117770538#1" to="-899499304#1" type="passenger"/>
    <trip id="94" depart="123.23" from="899499299" to="899499305#1" type="passenger"/>
    <trip id="95" depart="124.54" from="229028020#4" to="420080604#2" type="passenger"/>
    <trip id="96" depart="125.85" from="899499301#0" to="381802849#3" type="passenger"/>
    <trip id="97" depart="127.16" from="229028020#1" to="420090510#0" type="passenger"/>
    <trip id="98" depart="128.47" from="-229028020#1" to="381802849#5" type="passenger"/>
    <trip id="99" depart="129.78" from="117770562#2" to="781992368#10" type="passenger"/>
    <trip id="100" depart="131.09" from="-229028020#6" to="-381807683#4" type="passenger"/>
    <trip id="101" depart="132.40" from="381802849#4" to="381807709#0" type="passenger"/>
    <trip id="102" depart="133.71" from="-381807715#2" to="-381802849#2" type="passenger"/>
    <trip id="103" depart="135.02" from="781992368#8" to="-381807715#2" type="passenger"/>
    <trip id="104" depart="136.33" from="381802849#4" to="381802865#0" type="passenger"/>
    <trip id="105" depart="137.65" from="-899499304#0" to="381802849#4" type="passenger"/>
    <trip id="106" depart="138.96" from="218684411#0" to="896413216#0" type="passenger"/>
    <trip id="107" depart="140.27" from="-381807709#1" to="420080604#1" type="passenger"/>
    <trip id="108" depart="141.58" from="-420080604#1" to="-899499300" type="passenger"/>
    <trip id="109" depart="142.89" from="381807702#1" to="-420090510#3" type="passenger"/>
    <trip id="110" depart="144.20" from="-519060521" to="420090510#0" type="passenger"/>
    <trip id="111" depart="145.51" from="-229028020#5" to="117770549#1" type="passenger"/>
    <trip id="112" depart="146.82" from="908057245" to="908057245" type="passenger"/>
    <trip id="113" depart="148.13" from="-229028020#5" to="-381807709#0" type="passenger"/>
    <trip id="114" depart="149.44" from="781992368#4" to="781992368#8" type="passenger"/>
    <trip id="115" depart="150.75" from="-788411962#0" to="-381802857" type="passenger"/>
    <trip id="116" depart="152.07" from="519060523#0" to="381807715#1" type="passenger"/>
    <trip id="117" depart="153.38" from="381802851#2" to="899499305#0" type="passenger"/>
    <trip id="118" depart="154.69" from="381807683#4" to="-117770538#0" type="passenger"/>
    <trip id="119" depart="156.00" from="519060522#2" to="-420090510#3" type="passenger"/>
    <trip id="120" depart="157.31" from="381807688#2" to="896413216#1" type="passenger"/>
    <trip id="121" depart="158.62" from="-381802851#3" to="-381802849#1" type="passenger"/>
    <trip id="122" depart="159.93" from="-381802849#2" to="229028020#8" type="passenger"/>
    <trip id="123" depart="161.24" from="-420090510#0" to="381802851#3" type="passenger"/>
    <trip id="124" depart="162.55" from="381807711#2" to="-381807705" type="passenger"/>
    <trip id="125" depart="163.86" from="381807683#0" to="-420086339#0" type="passenger"/>
    <trip id="126" depart="165.17" from="-899499304#1" to="-420086340#0" type="passenger"/>
    <trip id="127" depart="166.49" from="-117770538#0" to="420090510#6" type="passenger"/>
    <trip id="128" depart="167.80" from="381807683#0" to="-420086339#0" type="passenger"/>
    <trip id="129" depart="169.11" from="420086339#0" to="229028020#7" type="passenger"/>
    <trip id="130" depart="170.42" from="-908057245" to="-117770538#1" type="passenger"/>
    <trip id="131" depart="171.73" from="-229028020#5" to="781992368#9" type="passenger"/>
    <trip id="132" depart="173.04" from="781992371#0" to="229028020#6" type="passenger"/>
    <trip id="133" depart="174.35" from="519060523#0" to="381802849#4" type="passenger"/>
    <trip id="134" depart="175.66" from="-381802867" to="-381802849#3" type="passenger"/>
    <trip id="135" depart="176.97" from="-519060520#0" to="782303556" type="passenger"/>
    <trip id="136" depart="178.28" from="519060520#0" to="781992368#2" type="passenger"/>
    <trip id="137" depart="179.59" from="781992370" to="-381807707" type="passenger"/>
    <trip id="138" depart="180.91" from="-420086339#1" to="-229028020#8" type="passenger"/>
    <trip id="139" depart="182.22" from="420090510#3" to="781992368#9" type="passenger"/>
    <trip id="140" depart="183.53" from="-899499303#0" to="381802867" type="passenger"/>
    <trip id="141" depart="184.84" from="781992368#10" to="899499303#1" type="passenger"/>
    <trip id="142" depart="186.15" from="519060522#0" to="781992368#9" type="passenger"/>
    <trip id="143" depart="187.46" from="-117770552#1" to="420086340#1" type="passenger"/>
    <trip id="144" depart="188.77" from="519060520#1" to="781992368#3" type="passenger"/>
    <trip id="145" depart="190.08" from="519060522#0" to="-420086339#1" type="passenger"/>
    <trip id="146" depart="191.39" from="420090510#5" to="-229028020#9" type="passenger"/>
    <trip id="147" depart="192.70" from="781992368#2" to="781992368#2" type="passenger"/>
    <trip id="148" depart="194.01" from="-381807711#1" to="519060523#0" type="passenger"/>
    <trip id="149" depart="195.33" from="117770549#0" to="-420090510#4" type="passenger"/>
    <trip id="150" depart="196.64" from="519060520#0" to="-381807711#0" type="passenger"/>
    <trip id="151" depart="197.95" from="-117770552#1" to="-381807702#1" type="passenger"/>
    <trip id="152" depart="199.26" from="-519060523#2" to="781992368#3" type="passenger"/>
    <trip id="153" depart="200.57" from="899499301#0" to="-420086340#1" type="passenger"/>
    <trip id="154" depart="201.88" from="381807683#1" to="-899499301#0" type="passenger"/>
    <trip id="155" depart="203.19" from="896413216#0" to="-381802849#1" type="passenger"/>
    <trip id="156" depart="204.50" from="899499301#3" to="-381807683#3" type="passenger"/>
    <trip id="157" depart="205.81" from="899499300" to="-420086339#0" type="passenger"/>
    <trip id="158" depart="207.12" from="-381802849#3" to="117770535#1" type="passenger"/>
    <trip id="159" depart="208.43" from="420080604#0" to="-420093962#0" type="passenger"/>
    <trip id="160" depart="209.75" from="381802849#6" to="218684411#2" type="passenger"/>
    <trip id="161" depart="211.06" from="-807006809" to="381802849#3" type="passenger"/>
    <trip id="162" depart="212.37" from="-420086340#0" to="381807715#2" type="passenger"/>
    <trip id="163" depart="213.68" from="-117770538#0" to="807006809" type="passenger"/>
    <trip id="164" depart="214.99" from="218684411#4" to="420080604#2" type="passenger"/>
    <trip id="165" depart="216.30" from="420086339#0" to="381807707" type="passenger"/>
    <trip id="166" depart="217.61" from="-782306024" to="-218684411#4" type="passenger"/>
    <trip id="167" depart="218.92" from="381807688#2" to="-519060523#1" type="passenger"/>
    <trip id="168" depart="220.23" from="-519060521" to="781992368#0" type="passenger"/>
    <trip id="169" depart="221.54" from="381807715#1" to="-420090510#3" type="passenger"/>
    <trip id="170" depart="222.85" from="-519060520#0" to="-899499303#0" type="passenger"/>
    <trip id="171" depart="224.17" from="-899499301#3" to="-420090510#1" type="passenger"/>
    <trip id="172" depart="225.48" from="-381802851#1" to="-899499304#1" type="passenger"/>
    <trip id="173" depart="226.79" from="896413216#0" to="381807709#1" type="passenger"/>
    <trip id="174" depart="228.10" from="781992371#0" to="381802865#0" type="passenger"/>
    <trip id="175" depart="229.41" from="-420093962#0" to="229028020#6" type="passenger"/>
    <trip id="176" depart="230.72" from="-117770538#0" to="-420086340#2" type="passenger"/>
    <trip id="177" depart="232.03" from="117770533" to="381802849#4" type="passenger"/>
    <trip id="178" depart="233.34" from="381807683#4" to="117770552#1" type="passenger"/>
    <trip id="179" depart="234.65" from="117770535#2" to="-381807709#0" type="passenger"/>
    <trip id="180" depart="235.96" from="117770552#0" to="782303556" type="passenger"/>
    <trip id="181" depart="237.27" from="519060520#0" to="-381807683#1" type="passenger"/>
    <trip id="182" depart="238.59" from="-229028020#7" to="218684411#3" type="passenger"/>
    <trip id="183" depart="239.90" from="381802873" to="-519060523#2" type="passenger"/>
    <trip id="184" depart="241.21" from="519060522#2" to="420090510#0" type="passenger"/>
    <trip id="185" depart="242.52" from="381807702#1" to="-381807710#0" type="passenger"/>
    <trip id="186" depart="243.83" from="-381807709#0" to="-117770549#1" type="passenger"/>
    <trip id="187" depart="245.14" from="-420080604#2" to="117770558#1" type="passenger"/>
    <trip id="188" depart="246.45" from="-381807707" to="381807711#1" type="passenger"/>
    <trip id="189" depart="247.76" from="117770562#0" to="-381807715#2" type="passenger"/>
    <trip id="190" depart="249.07" from="381807683#4" to="-117770538#0" type="passenger"/>
    <trip id="191" depart="250.38" from="420086339#2" to="420090510#6" type="passenger"/>
    <trip id="192" depart="251.69" from="-381807688#0" to="899499301#0" type="passenger"/>
    <trip id="193" depart="253.01" from="1199502738#2" to="-117770562#3" type="passenger"/>
    <trip id="194" depart="254.32" from="-420086339#1" to="781992368#0" type="passenger"/>
    <trip id="195" depart="255.63" from="117770539" to="519060522#2" type="passenger"/>
    <trip id="196" depart="256.94" from="381807691" to="899499305#0" type="passenger"/>
    <trip id="197" depart="258.25" from="781992368#8" to="381802857" type="passenger"/>
    <trip id="198" depart="259.56" from="519060523#0" to="229028020#6" type="passenger"/>
    <trip id="199" depart="260.87" from="781992368#9" to="420086340#3" type="passenger"/>
    <trip id="200" depart="262.18" from="117770552#1" to="-420080604#2" type="passenger"/>
    <trip id="201" depart="263.49" from="-420086339#1" to="381807683#3" type="passenger"/>
    <trip id="202" depart="264.80" from="420086340#2" to="218684411#4" type="passenger"/>
    <trip id="203" depart="266.11" from="381802865#0" to="-420086340#0" type="passenger"/>
    <trip id="204" depart="267.43" from="-229028020#6" to="-420086340#2" type="passenger"/>
    <trip id="205" depart="268.74" from="-420086340#3" to="-519060521" type="passenger"/>
    <trip id="206" depart="270.05" from="218684411#4" to="-381802849#6" type="passenger"/>
    <trip id="207" depart="271.36" from="-381807715#1" to="381807711#0" type="passenger"/>
    <trip id="208" depart="272.67" from="381807711#0" to="-218684411#3" type="passenger"/>
    <trip id="209" depart="273.98" from="-899499303#0" to="229028020#5" type="passenger"/>
    <trip id="210" depart="275.29" from="-899499304#0" to="-381807705" type="passenger"/>
    <trip id="211" depart="276.60" from="-899499304#1" to="782306024" type="passenger"/>
    <trip id="212" depart="277.91" from="381802849#1" to="381807711#1" type="passenger"/>
    <trip id="213" depart="279.22" from="781992367#1" to="420090510#5" type="passenger"/>
    <trip id="214" depart="280.53" from="-781992371#1" to="420090510#1" type="passenger"/>
    <trip id="215" depart="281.85" from="781992367#1" to="899499300" type="passenger"/>
    <trip id="216" depart="283.16" from="-899499304#0" to="420086340#3" type="passenger"/>
    <trip id="217" depart="284.47" from="229028020#2" to="381802851#3" type="passenger"/>
    <trip id="218" depart="285.78" from="-381807711#1" to="-381807709#1" type="passenger"/>
    <trip id="219" depart="287.09" from="117770535#0" to="-117770552#0" type="passenger"/>
    <trip id="220" depart="288.40" from="-612506388#0" to="381807709#1" type="passenger"/>
    <trip id="221" depart="289.71" from="-899499301#3" to="-381807683#0" type="passenger"/>
    <trip id="222" depart="291.02" from="117770549#1" to="-381802849#3" type="passenger"/>
    <trip id="223" depart="292.33" from="381802857" to="-117770552#0" type="passenger"/>
    <trip id="224" depart="293.64" from="-381802851#3" to="117770552#0" type="passenger"/>
    <trip id="225" depart="294.95" from="-218684411#4" to="-807006785#2" type="passenger"/>
    <trip id="226" depart="296.27" from="-381807710#0" to="-519060523#0" type="passenger"/>
    <trip id="227" depart="297.58" from="420086340#1" to="-807006785#2" type="passenger"/>
    <trip id="228" depart="298.89" from="420086339#2" to="612506388#0" type="passenger"/>
    <trip id="229" depart="300.20" from="-420086339#2" to="-229028020#3" type="passenger"/>
    <trip id="230" depart="301.51" from="-117770552#0" to="229028020#4" type="passenger"/>
    <trip id="231" depart="302.82" from="908057245" to="-781992371#1" type="passenger"/>
    <trip id="232" depart="304.13" from="381807683#3" to="420093962#1" type="passenger"/>
    <trip id="233" depart="305.44" from="381807683#3" to="420090510#1" type="passenger"/>
    <trip id="234" depart="306.75" from="-117770552#0" to="-381802855" type="passenger"/>
    <trip id="235" depart="308.06" from="-381802851#1" to="381807707" type="passenger"/>
    <trip id="236" depart="309.37" from="229028020#6" to="-381807709#1" type="passenger"/>
    <trip id="237" depart="310.69" from="381807709#1" to="420090510#5" type="passenger"/>
    <trip id="238" depart="312.00" from="-381807683#3" to="381802855" type="passenger"/>
    <trip id="239" depart="313.31" from="420086339#1" to="-381802849#0" type="passenger"/>
    <trip id="240" depart="314.62" from="519060522#2" to="899499302" type="passenger"/>
    <trip id="241" depart="315.93" from="-381802849#3" to="-117770549#1" type="passenger"/>
    <trip id="242" depart="317.24" from="-519060520#0" to="381807709#1" type="passenger"/>
    <trip id="243" depart="318.55" from="899499299" to="-899499300" type="passenger"/>
    <trip id="244" depart="319.86" from="381807711#2" to="-229028020#2" type="passenger"/>
    <trip id="245" depart="321.17" from="381807707" to="381802873" type="passenger"/>
    <trip id="246" depart="322.48" from="-381802849#1" to="420090510#6" type="passenger"/>
    <trip id="247" depart="323.79" from="420090510#4" to="-781992371#0" type="passenger"/>
    <trip id="248" depart="325.11" from="-908057245" to="-788411962#1" type="passenger"/>
    <trip id="249" depart="326.42" from="-381802849#2" to="899499301#3" type="passenger"/>
    <trip id="250" depart="327.73" from="381807683#0" to="519060523#3" type="passenger"/>
    <trip id="251" depart="329.04" from="381807711#0" to="117770535#1" type="passenger"/>
    <trip id="252" depart="330.35" from="420080604#1" to="899499302" type="passenger"/>
    <trip id="253" depart="331.66" from="-420086340#3" to="519060522#3" type="passenger"/>
    <trip id="254" depart="332.97" from="218684411#4" to="117770558#3" type="passenger"/>
    <trip id="255" depart="334.28" from="117770535#0" to="420086340#0" type="passenger"/>
    <trip id="256" depart="335.59" from="-420086340#3" to="781992368#10" type="passenger"/>
    <trip id="257" depart="336.90" from="519060523#0" to="-229028020#4" type="passenger"/>
    <trip id="258" depart="338.21" from="781992368#4" to="-381807715#2" type="passenger"/>
    <trip id="259" depart="339.53" from="117770549#1" to="381802855" type="passenger"/>
    <trip id="260" depart="340.84" from="-381807710#0" to="519060522#1" type="passenger"/>
    <trip id="261" depart="342.15" from="-612506388#1" to="781992368#8" type="passenger"/>
    <trip id="262" depart="343.46" from="381807710#0" to="-420086340#0" type="passenger"/>
    <trip id="263" depart="344.77" from="-229028020#8" to="420080604#2" type="passenger"/>
    <trip id="264" depart="346.08" from="381807707" to="381807683#4" type="passenger"/>
    <trip id="265" depart="347.39" from="-229028020#9" to="-381807710#0" type="passenger"/>
    <trip id="266" depart="348.70" from="381807707" to="-420090510#5" type="passenger"/>
    <trip id="267" depart="350.01" from="381802849#1" to="117770558#0" type="passenger"/>
    <trip id="268" depart="351.32" from="420086339#1" to="-519060523#1" type="passenger"/>
    <trip id="269" depart="352.63" from="381807710#0" to="-420086339#2" type="passenger"/>
    <trip id="270" depart="353.95" from="-420086339#2" to="-381802849#2" type="passenger"/>
    <trip id="271" depart="355.26" from="-381807707" to="-381802849#2" type="passenger"/>
    <trip id="272" depart="356.57" from="218684411#4" to="420090510#4" type="passenger"/>
    <trip id="273" depart="357.88" from="-381807703#1" to="-381807709#0" type="passenger"/>
    <trip id="274" depart="359.19" from="117770558#1" to="420086339#1" type="passenger"/>
    <trip id="275" depart="360.50" from="899499302" to="229028020#1" type="passenger"/>
    <trip id="276" depart="361.81" from="-420090510#3" to="-229028020#7" type="passenger"/>
    <trip id="277" depart="363.12" from="-381807707" to="-381807711#0" type="passenger"/>
    <trip id="278" depart="364.43" from="-381807702#1" to="-117770539" type="passenger"/>
    <trip id="279" depart="365.74" from="218684411#3" to="-420086339#2" type="passenger"/>
    <trip id="280" depart="367.05" from="899499302" to="229028020#8" type="passenger"/>
    <trip id="281" depart="368.37" from="381807709#1" to="-381802849#3" type="passenger"/>
    <trip id="282" depart="369.68" from="781992368#11" to="117770562#1" type="passenger"/>
    <trip id="283" depart="370.99" from="781992368#2" to="381802849#2" type="passenger"/>
    <trip id="284" depart="372.30" from="117770552#0" to="117770535#2" type="passenger"/>
    <trip id="285" depart="373.61" from="-381807703#1" to="-117770562#3" type="passenger"/>
    <trip id="286" depart="374.92" from="896413216#0" to="117770558#1" type="passenger"/>
    <trip id="287" depart="376.23" from="519060522#3" to="-899499301#0" type="passenger"/>
    <trip id="288" depart="377.54" from="-229028020#1" to="-381802851#2" type="passenger"/>
    <trip id="289" depart="378.85" from="229028020#6" to="-420090510#4" type="passenger"/>
    <trip id="290" depart="380.16" from="420086340#2" to="381802855" type="passenger"/>
    <trip id="291" depart="381.47" from="420093962#0" to="-381807711#0" type="passenger"/>
    <trip id="292" depart="382.79" from="218684411#0" to="117770538#1" type="passenger"/>
    <trip id="293" depart="384.10" from="117770535#2" to="781992368#2" type="passenger"/>
    <trip id="294" depart="385.41" from="899499304#1" to="-420090510#5" type="passenger"/>
    <trip id="295" depart="386.72" from="381802857" to="381802855" type="passenger"/>
    <trip id="296" depart="388.03" from="-381807709#2" to="-381807707" type="passenger"/>
    <trip id="297" depart="389.34" from="381807688#0" to="-381802857" type="passenger"/>
    <trip id="298" depart="390.65" from="-381807683#4" to="-229028020#1" type="passenger"/>
    <trip id="299" depart="391.96" from="-117770538#0" to="117770538#1" type="passenger"/>
    <trip id="300" depart="393.27" from="381802849#4" to="-420090510#0" type="passenger"/>
    <trip id="301" depart="394.58" from="-381807715#1" to="381807715#1" type="passenger"/>
    <trip id="302" depart="395.89" from="381807710#0" to="117770549#0" type="passenger"/>
    <trip id="303" depart="397.21" from="420090510#5" to="381802873" type="passenger"/>
    <trip id="304" depart="398.52" from="381807688#2" to="896413216#0" type="passenger"/>
    <trip id="305" depart="399.83" from="-908057245" to="229028020#6" type="passenger"/>
    <trip id="306" depart="401.14" from="381807683#3" to="788411962#0" type="passenger"/>
    <trip id="307" depart="402.45" from="519060522#4" to="-229028020#1" type="passenger"/>
    <trip id="308" depart="403.76" from="-381807683#3" to="-420090510#5" type="passenger"/>
    <trip id="309" depart="405.07" from="420086339#1" to="381802849#1" type="passenger"/>
    <trip id="310" depart="406.38" from="-420090510#4" to="-381802849#3" type="passenger"/>
    <trip id="311" depart="407.69" from="381807707" to="381807711#2" type="passenger"/>
    <trip id="312" depart="409.00" from="117770562#0" to="-229028020#3" type="passenger"/>
    <trip id="313" depart="410.31" from="-117770562#3" to="117770535#0" type="passenger"/>
    <trip id="314" depart="411.63" from="-519060523#1" to="-420080604#0" type="passenger"/>
    <trip id="315" depart="412.94" from="-229028020#9" to="899499301#3" type="passenger"/>
    <trip id="316" depart="414.25" from="519060523#1" to="381802849#2" type="passenger"/>
    <trip id="317" depart="415.56" from="381807702#1" to="-420086339#1" type="passenger"/>
    <trip id="318" depart="416.87" from="-218684411#2" to="420090510#1" type="passenger"/>
    <trip id="319" depart="418.18" from="117770552#0" to="381807688#2" type="passenger"/>
    <trip id="320" depart="419.49" from="788411962#0" to="-381807683#4" type="passenger"/>
    <trip id="321" depart="420.80" from="381802849#2" to="381807683#2" type="passenger"/>
    <trip id="322" depart="422.11" from="117770562#0" to="-229028020#5" type="passenger"/>