<?xml version="1.0" encoding="UTF-8"?>

<!-- generated on 2026-04-17 14:37:01.516711 by Eclipse SUMO randomTrips.py v1.26.0
<configuration>
    <net-file value="/Users/junlee/Desktop/2026-1/js/result/veh_sensitivity_short_cw3_20260417_143049/peak_x1p5_cw3_seed3_20min/sumo_nets/cw_9494/network.net.xml"/>
    <output-trip-file value="/Users/junlee/Desktop/2026-1/js/result/veh_sensitivity_short_cw3_20260417_143049/peak_x1p5_cw3_seed3_20min/sumo_nets/cw_9494/routes_seed44.trips.xml"/>
    <route-file value="/Users/junlee/Desktop/2026-1/js/result/veh_sensitivity_short_cw3_20260417_143049/peak_x1p5_cw3_seed3_20min/sumo_nets/cw_9494/routes_seed44.rou.xml"/>
    <vehicle-class value="passenger"/>
    <seed value="44"/>
    <end value="1200.0"/>
    <period value="1.147917829353506"/>
</configuration>
-->

<!-- generated on 2026-04-17T14:37:01.475196+09:00 by Eclipse SUMO duarouter 1.26.0
<duarouterConfiguration xmlns:xsi="http://www.w3.org/2001/XMLSchema-instance" xsi:noNamespaceSchemaLocation="http://sumo.dlr.de/xsd/duarouterConfiguration.xsd">

    <input>
        <net-file value="/Users/junlee/Desktop/2026-1/js/result/veh_sensitivity_short_cw3_20260417_143049/peak_x1p5_cw3_seed3_20min/sumo_nets/cw_9494/network.net.xml"/>
        <route-files value="/Users/junlee/Desktop/2026-1/js/result/veh_sensitivity_short_cw3_20260417_143049/peak_x1p5_cw3_seed3_20min/sumo_nets/cw_9494/routes_seed44.trips.xml"/>
    </input>

    <output>
        <output-file value="/Users/junlee/Desktop/2026-1/js/result/veh_sensitivity_short_cw3_20260417_143049/peak_x1p5_cw3_seed3_20min/sumo_nets/cw_9494/routes_seed44.rou.xml"/>
        <alternatives-output value="NUL"/>
    </output>

    <time>
        <begin value="0.0"/>
        <end value="1200.0"/>
    </time>

    <report>
        <no-warnings value="true"/>
        <ignore-errors value="true"/>
        <no-step-log value="true"/>
    </report>

</duarouterConfiguration>
-->

<routes xmlns:xsi="http://www.w3.org/2001/XMLSchema-instance" xsi:noNamespaceSchemaLocation="http://sumo.dlr.de/xsd/routes_file.xsd">
    <vType id="passenger" vClass="passenger"/>
    <vehicle id="0" type="passenger" depart="0.00">
        <route edges="-899499303#0 -519060523#3 -519060523#2 -519060523#1 -519060523#0 -218684411#4 229028020#1 229028020#2 229028020#3 229028020#4 229028020#5"/>
    </vehicle>
    <vehicle id="1" type="passenger" depart="1.15">
        <route edges="781992368#10 781992368#11 -229028020#9 -229028020#8 420086340#1 420086340#2 -381807683#2"/>
    </vehicle>
    <vehicle id="2" type="passenger" depart="2.30">
        <route edges="-381807711#2 -381807711#1 -229028020#4 -229028020#3 -229028020#2 -229028020#1 218684411#4 519060523#0 519060523#1 519060523#2 -381802849#6 117770535#2 -117770552#1 -117770552#0"/>
    </vehicle>
    <vehicle id="3" type="passenger" depart="3.44">
        <route edges="-381802849#5 -381802849#4 117770549#0 381802855 -117770538#0"/>
    </vehicle>
    <vehicle id="4" type="passenger" depart="4.59">
        <route edges="899499304#1 -899499303#1 -899499303#0 -519060523#3 -519060523#2 -519060523#1 -519060523#0 -218684411#4 -218684411#3 381807702#1 -420080604#1 -788411962#1 381807711#0"/>
    </vehicle>
    <vehicle id="5" type="passenger" depart="5.74">
        <route edges="381807707 -381807702#1 218684411#3 218684411#4 -781992371#1 -781992371#0 -381807715#2 -381807715#1 908057245 896413216#0 896413216#1 -519060523#3 -519060523#2 -519060523#1 -519060523#0"/>
    </vehicle>
    <vehicle id="6" type="passenger" depart="6.89">
        <route edges="-229028020#5 -229028020#4 -229028020#3 -229028020#2 -229028020#1 218684411#4 -781992371#1 -781992371#0 781992367#1"/>
    </vehicle>
    <vehicle id="7" type="passenger" depart="8.04">
        <route edges="381802855 -117770538#0 -381802849#4 -381802849#3 -381802849#2 -381802849#1 -381802849#0"/>
    </vehicle>
    <vehicle id="8" type="passenger" depart="9.18">
        <route edges="-229028020#4 -420080604#2 -420080604#1 -788411962#1 -788411962#0 -381807683#4 -381807709#1 -229028020#6"/>
    </vehicle>
    <vehicle id="9" type="passenger" depart="10.33">
        <route edges="899499299 899499300 899499301#0 899499301#3 381807715#1 781992370 781992368#0 781992368#2 781992368#3 781992368#4 781992368#7 781992368#8 781992368#9 781992368#10 781992368#11 -229028020#9"/>
    </vehicle>
    <vehicle id="10" type="passenger" depart="11.48">
        <route edges="381802865#0 519060523#0 519060523#1 519060523#2 519060523#3 899499303#0"/>
    </vehicle>
    <vehicle id="11" type="passenger" depart="12.63">
        <route edges="-117770562#2 381802849#1 381802849#2 381802849#3 381802849#4 381802849#5 381802849#6 -519060523#2 -519060523#1 -519060523#0 -781992371#1 -781992371#0 -381807715#2 -381807715#1 -899499301#3 -899499301#0 -899499300 -871052107#0"/>
    </vehicle>
    <vehicle id="12" type="passenger" depart="13.78">
        <route edges="-381807705 381807710#0 899499301#0 899499301#3 908057245 896413216#0 896413216#1 -519060523#3 -519060523#2 -519060523#1 -519060523#0 -218684411#4 229028020#1 229028020#2 229028020#3 -420080604#2"/>
    </vehicle>
    <vehicle id="13" type="passenger" depart="14.92">
        <route edges="-420086339#1 788411962#0 788411962#1 420080604#1 -381807702#1 218684411#3 218684411#4 519060523#0 519060523#1 117770552#0 117770552#1 420090510#0 420090510#1 420090510#3 420090510#4 420090510#5 -117770562#3"/>
    </vehicle>
    <vehicle id="14" type="passenger" depart="16.07">
        <route edges="381807702#1 -381807707 -229028020#1 218684411#4 519060523#0"/>
    </vehicle>
    <vehicle id="15" type="passenger" depart="17.22">
        <route edges="117770535#0 117770535#1 -381802849#5 -381802849#4 -381802849#3 -381802849#2 -381802849#1 -117770562#1 -117770562#0"/>
    </vehicle>
    <vehicle id="16" type="passenger" depart="18.37">
        <route edges="381807711#1 381807711#2 781992368#7 781992368#8 420086340#0 420086340#1"/>
    </vehicle>
    <vehicle id="17" type="passenger" depart="19.51">
        <route edges="381807683#4 788411962#0 788411962#1 420080604#1 -381807702#1 218684411#3 218684411#4 -781992371#1 -781992371#0 -381807715#2 -381807715#1 908057245 896413216#0 896413216#1 -519060523#3 -519060523#2 -519060523#1"/>
    </vehicle>
    <vehicle id="18" type="passenger" depart="20.66">
        <route edges="381802849#3 381802849#4 381802849#5 381802849#6 -519060523#2 -519060523#1 -519060523#0 -218684411#4 229028020#1 229028020#2 229028020#3 229028020#4 229028020#5"/>
    </vehicle>
    <vehicle id="19" type="passenger" depart="21.81">
        <route edges="-381807715#2 -381807715#1 908057245 896413216#0 896413216#1 -519060523#3 -381802849#6 -381802849#5 -381802849#4 117770549#0"/>
    </vehicle>
    <vehicle id="20" type="passenger" depart="22.96">
        <route edges="420093962#0 381802857 -782306024 -420090510#1 -420090510#0 381802865#0 -218684411#4 -218684411#3 381807702#1 -420080604#1 -788411962#1 -788411962#0 -381807683#4 381807709#2"/>
    </vehicle>
    <vehicle id="21" type="passenger" depart="24.11">
        <route edges="-781992371#0 -381807715#2 -381807715#1 908057245 896413216#0 896413216#1 -519060523#3 -519060523#2 117770552#0 117770552#1 381802865#0 519060523#0 519060523#1"/>
    </vehicle>
    <vehicle id="22" type="passenger" depart="25.25">
        <route edges="519060523#2 -381802849#6 -381802849#5 -381802849#4 -381802849#3 -381802849#2 -381802849#1 -117770562#1"/>
    </vehicle>
    <vehicle id="23" type="passenger" depart="26.40">
        <route edges="-117770549#1 381802855 117770538#1 420090510#1"/>
    </vehicle>
    <vehicle id="24" type="passenger" depart="27.55">
        <route edges="381807683#2 381807683#3 381807683#4 788411962#0 381807711#0 229028020#5"/>
    </vehicle>
    <vehicle id="25" type="passenger" depart="28.70">
        <route edges="-381807709#0 781992368#8 420086340#0 -229028020#7 -229028020#6 -229028020#5 -229028020#4 -229028020#3 -229028020#2 -229028020#1 218684411#4 519060523#0 519060523#1 519060523#2 -381802849#6 -381802849#5 -381802849#4 -381802849#3 -381802849#2 -381802849#1 -381802849#0"/>
    </vehicle>
    <vehicle id="26" type="passenger" depart="29.85">
        <route edges="-612506388#1 -612506388#0 381807715#1 781992370 -781992372 -381807715#2 -381807715#1 612506388#0 612506388#1"/>
    </vehicle>
    <vehicle id="27" type="passenger" depart="30.99">
        <route edges="381802849#6 -519060523#2 -519060523#1 -519060523#0 -218684411#4 -218684411#3 -218684411#2"/>
    </vehicle>
    <vehicle id="28" type="passenger" depart="32.14">
        <route edges="117770535#0 117770535#1 117770535#2 420090510#0 420090510#1 420090510#3 420090510#4 420090510#5 -117770562#3 -117770562#2"/>
    </vehicle>
    <vehicle id="29" type="passenger" depart="33.29">
        <route edges="381802857 -782306024 -117770549#1 -117770549#0 -381802849#3 -381802849#2"/>
    </vehicle>
    <vehicle id="30" type="passenger" depart="34.44">
        <route edges="-381807702#1 218684411#3 229028020#1 229028020#2 229028020#3 229028020#4 229028020#5 229028020#6 381807709#1 381807683#4"/>
    </vehicle>
    <vehicle id="31" type="passenger" depart="35.59">
        <route edges="519060523#1 519060523#2 -381802849#6 -381802849#5 -381802849#4 -381802849#3 -381802849#2 381802867"/>
    </vehicle>
    <vehicle id="32" type="passenger" depart="36.73">
        <route edges="-420090510#5 -420090510#4 -420090510#3 -420090510#1 -420090510#0 381802865#0 -218684411#4 229028020#1 229028020#2 229028020#3 229028020#4 229028020#5 229028020#6 381807709#1 381807683#4"/>
    </vehicle>
    <vehicle id="33" type="passenger" depart="37.88">
        <route edges="-420086340#3 381807683#3 381807683#4 788411962#0 788411962#1 420080604#1 -381807702#1 218684411#3 218684411#4 519060523#0 519060523#1 117770552#0 117770552#1 420090510#0 -117770538#1 -117770538#0"/>
    </vehicle>
    <vehicle id="34" type="passenger" depart="39.03">
        <route edges="-420090510#0 381802865#0 -781992371#1 -781992371#0 -381807715#2 381807688#0 381807710#0"/>
    </vehicle>
    <vehicle id="35" type="passenger" depart="40.18">
        <route edges="381802865#0 -218684411#4 229028020#1 229028020#2 229028020#3 -420080604#2 -381807702#1"/>
    </vehicle>
    <vehicle id="36" type="passenger" depart="41.33">
        <route edges="519060523#2 519060523#3"/>
    </vehicle>
    <vehicle id="37" type="passenger" depart="42.47">
        <route edges="-420090510#1 -420090510#0 381802865#0 -781992371#1 -781992371#0 -381807715#2 381807688#0 381807710#0 899499301#0 899499301#3"/>
    </vehicle>
    <vehicle id="38" type="passenger" depart="43.62">
        <route edges="-420086340#1 -229028020#7 -229028020#6 -229028020#5 -229028020#4 -229028020#3 -229028020#2 -229028020#1 -218684411#3"/>
    </vehicle>
    <vehicle id="39" type="passenger" depart="44.77">
        <route edges="1199502738#0 1199502738#1 1199502738#2 519060520#0 519060520#1 -908057245 381807715#1 781992370 781992368#0 781992368#2 781992368#3"/>
    </vehicle>
    <vehicle id="40" type="passenger" depart="45.92">
        <route edges="381802849#5 381802849#6 -519060523#2 -519060523#1 -519060523#0 -218684411#4 229028020#1 229028020#2 229028020#3 229028020#4 229028020#5 229028020#6"/>
    </vehicle>
    <vehicle id="41" type="passenger" depart="47.06">
        <route edges="-420093962#0 -420090510#1 -420090510#0 381802865#0 -781992371#1 -781992371#0 -381807715#2 -381807715#1 -899499301#3"/>
    </vehicle>
    <vehicle id="42" type="passenger" depart="48.21">
        <route edges="-229028020#5 -229028020#4 -420080604#2 -420080604#1 -420080604#0"/>
    </vehicle>
    <vehicle id="43" type="passenger" depart="49.36">
        <route edges="896413216#1 -519060523#3 -519060523#2 -519060523#1 -519060523#0 -218684411#4 -218684411#3 381807702#1"/>
    </vehicle>
    <vehicle id="44" type="passenger" depart="50.51">
        <route edges="-229028020#5 -229028020#4 -229028020#3 -229028020#2 -229028020#1 218684411#4 519060523#0 519060523#1 519060523#2 -381802849#6 117770535#2"/>
    </vehicle>
    <vehicle id="45" type="passenger" depart="51.66">
        <route edges="381807683#3 381807683#4 788411962#0 788411962#1"/>
    </vehicle>
    <vehicle id="46" type="passenger" depart="52.80">
        <route edges="-229028020#7 -229028020#6 -229028020#5 -229028020#4 -229028020#3 -229028020#2 -229028020#1 218684411#4 -781992371#1 -781992371#0 -381807715#2 781992370 781992368#0 781992368#2 781992368#3 782303556"/>
    </vehicle>
    <vehicle id="47" type="passenger" depart="53.95">
        <route edges="420090510#0 -117770538#1 -117770538#0 381802849#5 381802849#6 -519060523#2 -519060523#1 -519060523#0 -218684411#4 229028020#1 229028020#2 229028020#3 229028020#4 229028020#5 229028020#6 229028020#7 -420086340#0"/>
    </vehicle>
    <vehicle id="48" type="passenger" depart="55.10">
        <route edges="218684411#3 218684411#4 519060523#0 519060523#1 519060523#2"/>
    </vehicle>
    <vehicle id="49" type="passenger" depart="56.25">
        <route edges="-420080604#2 -420080604#1 -788411962#1 381807711#0 381807711#1 381807711#2"/>
    </vehicle>
    <vehicle id="50" type="passenger" depart="57.40">
        <route edges="229028020#5 420086339#2 -381807711#1 -229028020#4 -229028020#3 -229028020#2 -229028020#1"/>
    </vehicle>
    <vehicle id="51" type="passenger" depart="58.54">
        <route edges="-420086340#3 381807683#3 381807683#4 788411962#0 788411962#1 420080604#1 -381807702#1 218684411#3 218684411#4 -781992371#1 -781992371#0 -381807715#2 -381807715#1 908057245 899499302 -519060520#0 -899499303#1"/>
    </vehicle>
    <vehicle id="52" type="passenger" depart="59.69">
        <route edges="-420086339#2 -229028020#5 -381807711#0 -788411962#0 420086339#1 420086339#2 -381807711#1"/>
    </vehicle>
    <vehicle id="53" type="passenger" depart="60.84">
        <route edges="381802849#4 381802849#5 381802849#6 -519060523#2 -519060523#1 -519060523#0 -218684411#4 229028020#1 229028020#2"/>
    </vehicle>
    <vehicle id="54" type="passenger" depart="61.99">
        <route edges="-519060523#0"/>
    </vehicle>
    <vehicle id="55" type="passenger" depart="63.14">
        <route edges="117770562#1 381802849#1 381802849#2 381802849#3 381802849#4 381802849#5 381802849#6 -519060523#2 -519060523#1 -519060523#0 -218684411#4 229028020#1 229028020#2 229028020#3 229028020#4 229028020#5 -420086339#1 788411962#0"/>
    </vehicle>
    <vehicle id="56" type="passenger" depart="64.28">
        <route edges="-229028020#6 -420086339#1 788411962#0 788411962#1"/>
    </vehicle>
    <vehicle id="57" type="passenger" depart="65.43">
        <route edges="896413216#0 896413216#1 -519060523#3 -519060523#2 -519060523#1 -519060523#0 -218684411#4 -218684411#3 381807702#1 -420080604#1 -788411962#1 -788411962#0 -381807683#4 381807709#2"/>
    </vehicle>
    <vehicle id="58" type="passenger" depart="66.58">
        <route edges="519060520#1 -908057245 381807715#1 781992370 781992368#0 781992368#2 781992368#3 781992368#4 781992368#7 781992368#8 781992368#9 781992368#10 -807006809"/>
    </vehicle>
    <vehicle id="59" type="passenger" depart="67.73">
        <route edges="899499300 899499301#0 899499301#3 381807715#1 781992370 781992368#0 781992368#2 781992368#3 781992368#4 781992368#7 781992368#8 420086340#0 420086340#1 420086340#2"/>
    </vehicle>
    <vehicle id="60" type="passenger" depart="68.88">
        <route edges="381807705 -781992372 781992371#0 781992371#1 519060523#0 519060523#1 519060523#2 -381802849#6 -381802849#5 117770538#0 117770538#1"/>
    </vehicle>
    <vehicle id="61" type="passenger" depart="70.02">
        <route edges="-381807711#1 -229028020#4 -420080604#2 -420080604#1 -788411962#1 381807711#0"/>
    </vehicle>
    <vehicle id="62" type="passenger" depart="71.17">
        <route edges="420080604#1 -381807702#1 218684411#3 218684411#4 519060523#0 519060523#1 117770552#0 117770552#1 420090510#0 -117770538#1 -117770538#0"/>
    </vehicle>
    <vehicle id="63" type="passenger" depart="72.32">
        <route edges="-519060520#0 -899499303#1 -899499303#0 -519060523#3 -519060523#2 -519060523#1 -519060523#0 -218684411#4 229028020#1 229028020#2 229028020#3 229028020#4"/>
    </vehicle>
    <vehicle id="64" type="passenger" depart="73.47">
        <route edges="-381807710#0 381807688#2 899499300 899499301#0 899499301#3 908057245 896413216#0 896413216#1 -519060523#3 -381802849#6 -381802849#5 -381802849#4"/>
    </vehicle>
    <vehicle id="65" type="passenger" depart="74.61">
        <route edges="-381807705 381807710#0 899499301#0 899499301#3 908057245 896413216#0 896413216#1 -519060523#3 -519060523#2 117770552#0 117770552#1 420090510#0 420090510#1 420090510#3 420090510#4 420090510#5 -117770539"/>
    </vehicle>
    <vehicle id="66" type="passenger" depart="75.76">
        <route edges="-381802849#6 117770535#2 381802865#0 -781992371#1 -781992371#0 -381807715#2 -381807715#1 -899499301#3 -899499301#0 -899499300 -899499299"/>
    </vehicle>
    <vehicle id="67" type="passenger" depart="76.91">
        <route edges="117770562#2 117770562#3 -420090510#5 -420090510#4 -420090510#3 -420090510#1 -420090510#0 381802865#0 -218684411#4 229028020#1 229028020#2 229028020#3 229028020#4 229028020#5 229028020#6 229028020#7 420086340#1 420086340#2 381807683#3"/>
    </vehicle>
    <vehicle id="68" type="passenger" depart="78.06">
        <route edges="-519060520#0 -899499303#1 -899499303#0 -519060523#3 -381802849#6 -381802849#5 -381802849#4 -381802849#3"/>
    </vehicle>
    <vehicle id="69" type="passenger" depart="79.21">
        <route edges="381807703#1 -229028020#8 -229028020#7 -229028020#6 -229028020#5 -229028020#4 -229028020#3 -229028020#2 -229028020#1 218684411#4 -781992371#1 -781992371#0 -381807715#2 381807688#0 381807710#0"/>
    </vehicle>
    <vehicle id="70" type="passenger" depart="80.35">
        <route edges="-519060523#1 -519060523#0 -218684411#4 -218684411#3 -218684411#2 381802851#1"/>
    </vehicle>
    <vehicle id="71" type="passenger" depart="81.50">
        <route edges="-519060523#0 -781992371#1 -781992371#0 -381807715#2 381807688#0 381807688#2"/>
    </vehicle>
    <vehicle id="72" type="passenger" depart="82.65">
        <route edges="519060522#2 519060522#3 381802851#2 420090510#4 420090510#5 -117770539"/>
    </vehicle>
    <vehicle id="73" type="passenger" depart="83.80">
        <route edges="519060520#0 519060520#1 -908057245 381807715#1 381807715#2 781992371#0 781992371#1 519060523#0 519060523#1 519060523#2 -381802849#6 -381802849#5 -381802849#4 -381802849#3 -381802849#2 -381802849#1"/>
    </vehicle>
    <vehicle id="74" type="passenger" depart="84.95">
        <route edges="-117770549#1 -117770549#0 381802849#4 381802849#5 381802849#6 -519060523#2 -519060523#1 -519060523#0 -218684411#4 -218684411#3 381807702#1 420080604#2 -229028020#3 -229028020#2"/>
    </vehicle>
    <vehicle id="75" type="passenger" depart="86.09">
        <route edges="229028020#5 229028020#6 229028020#7 229028020#8 807006809 781992368#11"/>
    </vehicle>
    <vehicle id="76" type="passenger" depart="87.24">
        <route edges="807006785#0 807006785#2 420086340#0 -229028020#7 -229028020#6 -229028020#5 -229028020#4 -229028020#3 -229028020#2 -229028020#1 218684411#4 519060523#0 519060523#1 117770552#0 117770552#1 519060522#0 519060522#1 -381802857"/>
    </vehicle>
    <vehicle id="77" type="passenger" depart="88.39">
        <route edges="117770533 117770562#3 -420090510#5 -420090510#4 -420090510#3 -420090510#1 -420090510#0 381802865#0 -781992371#1 -781992371#0 -381807715#2 -381807715#1 908057245 896413216#0 896413216#1"/>
    </vehicle>
    <vehicle id="78" type="passenger" depart="89.54">
        <route edges="781992368#7 381807709#0 -229028020#6 -229028020#5 -229028020#4 -229028020#3 -229028020#2 -229028020#1 218684411#4 519060523#0 519060523#1 519060523#2"/>
    </vehicle>
    <vehicle id="79" type="passenger" depart="90.69">
        <route edges="-420086339#1 -381807683#4 -381807683#3 -420086340#2 -420086340#1 -420086340#0"/>
    </vehicle>
    <vehicle id="80" type="passenger" depart="91.83">
        <route edges="-381802867 381802849#2 381802849#3 381802849#4 381802849#5 381802849#6 -519060523#2 -519060523#1 -519060523#0 -218684411#4 -218684411#3 381807702#1 -420080604#1 -788411962#1 -788411962#0 -420086339#0"/>
    </vehicle>
    <vehicle id="81" type="passenger" depart="92.98">
        <route edges="-899499301#3 -899499301#0 -381807710#0 381807688#2 899499300 899499301#0 899499301#3 908057245 896413216#0 896413216#1 -519060523#3 -519060523#2 117770552#0 117770552#1 519060522#0 519060522#1"/>
    </vehicle>
    <vehicle id="82" type="passenger" depart="94.13">
        <route edges="381807688#0 381807705 781992368#0 781992368#2 781992368#3 781992368#4 781992368#7 781992368#8 420086340#0 420086340#1 420086340#2 -381807683#2 -381807683#1"/>
    </vehicle>
    <vehicle id="83" type="passenger" depart="95.28">
        <route edges="-381807702#1 218684411#3 218684411#4 519060523#0 519060523#1 519060523#2 -381802849#6 -381802849#5 117770538#0 117770538#1"/>
    </vehicle>
    <vehicle id="84" type="passenger" depart="96.43">
        <route edges="781992368#8 420086340#0 -229028020#7 -229028020#6 -229028020#5 -229028020#4 -229028020#3 -229028020#2 -229028020#1 218684411#4 519060523#0 519060523#1 117770552#0 117770552#1 420090510#0 420090510#1 420090510#3 420090510#4 117770558#0"/>
    </vehicle>
    <vehicle id="85" type="passenger" depart="97.57">
        <route edges="420090510#5 -117770562#3 -117770562#2 381802849#1 381802849#2 381802849#3 381802849#4 381802849#5 381802849#6 -519060523#2 -519060523#1 -519060523#0 -781992371#1 -781992371#0 -381807715#2 381807688#0 381807710#0"/>
    </vehicle>
    <vehicle id="86" type="passenger" depart="98.72">
        <route edges="781992368#3 781992368#4 -381807711#2 -381807711#1 -229028020#4 -229028020#3 -229028020#2 -229028020#1 218684411#4 519060523#0 519060523#1 519060523#2 -381802849#6 -381802849#5 -381802849#4 -381802849#3 -381802849#2 -381802849#1 117770562#2 117770562#3"/>
    </vehicle>
    <vehicle id="87" type="passenger" depart="99.87">
        <route edges="519060520#1 -908057245 381807715#1 781992370 781992368#0 781992368#2 781992368#3 781992368#4 781992368#7 381807709#0 229028020#7 -420086340#0"/>
    </vehicle>
    <vehicle id="88" type="passenger" depart="101.02">
        <route edges="-381807707 -229028020#1 218684411#4 -781992371#1 -781992371#0 -381807715#2 -381807715#1 612506388#0 612506388#1"/>
    </vehicle>
    <vehicle id="89" type="passenger" depart="102.16">
        <route edges="117770558#0 381802849#3 381802849#4 381802849#5 381802849#6 -519060523#2 -519060523#1 -519060523#0 -218684411#4 229028020#1 229028020#2 229028020#3 229028020#4 229028020#5 229028020#6 229028020#7 420086340#1 420086340#2 381807683#3"/>
    </vehicle>
    <vehicle id="90" type="passenger" depart="103.31">
        <route edges="-381807688#0 781992370 -381807705 381807710#0 899499301#0 899499301#3 908057245 896413216#0 896413216#1 -519060523#3 -381802849#6 -381802849#5 -381802849#4 -381802849#3 -381802849#2 -381802849#1 -117770562#1"/>
    </vehicle>
    <vehicle id="91" type="passenger" depart="104.46">
        <route edges="-381807711#2 -381807711#1 -229028020#4 -229028020#3 -229028020#2 -229028020#1 218684411#4 -781992371#1 -781992371#0 -381807715#2 -381807715#1 908057245 899499302 -519060520#0 -899499304#1 -899499304#0 -519060521 117770535#0"/>
    </vehicle>
    <vehicle id="92" type="passenger" depart="105.61">
        <route edges="-117770562#2 381802849#1 381802849#2 381802849#3 381802849#4 381802849#5 381802849#6 -519060523#2 -519060523#1 -519060523#0 -218684411#4 229028020#1 229028020#2 229028020#3 229028020#4 381807711#1 -420086339#2"/>
    </vehicle>
    <vehicle id="93" type="passenger" depart="106.76">
        <route edges="896413216#1 -519060523#3 -519060523#2 -519060523#1 -519060523#0 -781992371#1 -781992371#0 -381807715#2 -381807715#1 908057245 899499302 -519060520#0 -899499304#1 -899499304#0 -519060521 117770535#0 117770535#1"/>
    </vehicle>
    <vehicle id="94" type="passenger" depart="107.90">
        <route edges="-117770538#1 -381802855 117770549#1 782306024 519060522#2"/>
    </vehicle>
    <vehicle id="95" type="passenger" depart="109.05">
        <route edges="-420093962#0 -420090510#1 -420090510#0 381802865#0 -218684411#4 -218684411#3 381807702#1 -420080604#1 -788411962#1 -788411962#0 -381807683#4 -381807683#3 -381807683#2"/>
    </vehicle>
    <vehicle id="96" type="passenger" depart="110.20">
        <route edges="381807683#0 381807683#1 381807683#2 381807683#3 381807683#4 788411962#0 788411962#1 420080604#1 -381807702#1 218684411#3 218684411#4 -781992371#1 -781992371#0 -381807715#2 381807688#0 381807705"/>
    </vehicle>
    <vehicle id="97" type="passenger" depart="111.35">
        <route edges="-519060523#1 -519060523#0 -781992371#1 -781992371#0 -381807715#2 381807688#0 381807710#0 899499301#0 899499301#3 381807715#1 381807715#2"/>
    </vehicle>
    <vehicle id="98" type="passenger" depart="112.50">
        <route edges="781992368#3 781992368#4 -381807711#2 -381807711#1 -229028020#4 -229028020#3 -229028020#2 -229028020#1 218684411#4 -781992371#1 -781992371#0 -381807715#2 -381807715#1 908057245 896413216#0 896413216#1 -519060523#3"/>
    </vehicle>
    <vehicle id="99" type="passenger" depart="113.64">
        <route edges="117770562#1 381802849#1 381802849#2 381802849#3 117770549#0 381802855 -117770538#0"/>
    </vehicle>
    <vehicle id="100" type="passenger" depart="114.79">
        <route edges="381802849#3 117770549#0 117770549#1 -420090510#1"/>
    </vehicle>
    <vehicle id="101" type="passenger" depart="115.94">
        <route edges="381807683#4 788411962#0 788411962#1 420080604#1 -381807702#1 218684411#3 218684411#4 519060523#0 519060523#1 117770552#0 117770552#1 420090510#0 420090510#1 420090510#3"/>
    </vehicle>
    <vehicle id="102" type="passenger" depart="117.09">
        <route edges="-612506388#1 -612506388#0 -899499301#3 -899499301#0 -381807710#0 381807705"/>
    </vehicle>
    <vehicle id="103" type="passenger" depart="118.24">
        <route edges="896413216#1 -519060523#3 -519060523#2 -519060523#1 -519060523#0 -218684411#4 -218684411#3 381807702#1 -420080604#1 -788411962#1 -788411962#0 -381807683#4 -381807683#3 -381807683#2 -381807683#1"/>
    </vehicle>
    <vehicle id="104" type="passenger" depart="119.38">
        <route edges="519060520#0 519060520#1 -908057245 381807715#1 381807715#2 781992371#0 781992371#1 519060523#0 519060523#1 519060523#2 -381802849#6 -381802849#5 -381802849#4 -381802849#3 117770558#1"/>
    </vehicle>
    <vehicle id="105" type="passenger" depart="120.53">
        <route edges="896413216#1 -519060523#3 -519060523#2 -519060523#1 -519060523#0 -218684411#4 -218684411#3 381807702#1 -381807707 -229028020#1"/>
    </vehicle>
    <vehicle id="106" type="passenger" depart="121.68">
        <route edges="-420086340#1 -229028020#7 -229028020#6 -229028020#5 -229028020#4 -229028020#3 -229028020#2 -229028020#1 218684411#4 -781992371#1 -781992371#0 -381807715#2 381807688#0 381807710#0 899499301#0 899499301#3 381807715#1 381807715#2 781992371#0"/>
    </vehicle>
    <vehicle id="107" type="passenger" depart="122.83">
        <route edges="218684411#2 218684411#3 218684411#4 -781992371#1 -781992371#0 -381807715#2 781992370 -781992372"/>
    </vehicle>
    <vehicle id="108" type="passenger" depart="123.98">
        <route edges="899499300 899499301#0 899499301#3 908057245 896413216#0 896413216#1 -519060523#3 -519060523#2 117770552#0 117770552#1 420090510#0 420090510#1 420090510#3 420090510#4 420090510#5 -117770562#3"/>
    </vehicle>
    <vehicle id="109" type="passenger" depart="125.12">
        <route edges="-117770552#0 519060523#2 -381802849#6 -381802849#5 117770538#0 117770538#1 420090510#1 420090510#3 420090510#4 420090510#5"/>
    </vehicle>
    <vehicle id="110" type="passenger" depart="126.27">
        <route edges="229028020#4 -381807711#0 788411962#1 420080604#1 -381807702#1 218684411#3 218684411#4 -781992371#1 -781992371#0 -381807715#2 -381807715#1 612506388#0"/>
    </vehicle>
    <vehicle id="111" type="passenger" depart="127.42">
        <route edges="-519060523#3 -519060523#2 -519060523#1 -519060523#0 -218684411#4 229028020#1 229028020#2 229028020#3 229028020#4 -381807711#0"/>
    </vehicle>
    <vehicle id="112" type="passenger" depart="128.57">
        <route edges="781992368#4 -381807711#2 -381807711#1 -229028020#4 -420080604#2 -381807707 229028020#2 229028020#3"/>
    </vehicle>
    <vehicle id="113" type="passenger" depart="129.71">
        <route edges="-117770549#1 -117770549#0 381802849#4 381802849#5 381802849#6 -519060523#2 -519060523#1 -519060523#0 -218684411#4 229028020#1 229028020#2 229028020#3 229028020#4 229028020#5 420086339#2"/>
    </vehicle>
    <vehicle id="114" type="passenger" depart="130.86">
        <route edges="381807683#1 381807683#2 381807683#3 381807683#4 788411962#0 788411962#1 420080604#1 -381807702#1 218684411#3 218684411#4 519060523#0 519060523#1 519060523#2 -381802849#6 -381802849#5 -381802849#4 -381802849#3 -381802849#2 -381802849#1 -381802849#0"/>
    </vehicle>
    <vehicle id="115" type="passenger" depart="132.01">
        <route edges="519060520#0 519060520#1 -908057245 381807715#1 381807715#2 781992371#0 781992371#1 519060523#0 519060523#1 117770552#0 117770552#1 420090510#0 420090510#1 420093962#0"/>
    </vehicle>
    <vehicle id="116" type="passenger" depart="133.16">
        <route edges="381802873 117770562#1 381802849#1 381802849#2 381802849#3"/>
    </vehicle>
    <vehicle id="117" type="passenger" depart="134.31">
        <route edges="117770535#0 117770535#1 381802849#6 -519060523#2 -519060523#1 -519060523#0 -218684411#4 -218684411#3 381807702#1 -420080604#1 -788411962#1 381807711#0"/>
    </vehicle>
    <vehicle id="118" type="passenger" depart="135.45">