<?xml version="1.0" encoding="UTF-8"?>

<!-- generated on 2026-04-17 02:57:33.159958 by Eclipse SUMO randomTrips.py v1.26.0
<configuration>
    <net-file value="/Users/junlee/Desktop/2026-1/js/result/tradeoff_pet_top12_seed12_60min_20260417_025716/sumo_nets/cw_9494/network.net.xml"/>
    <output-trip-file value="/Users/junlee/Desktop/2026-1/js/result/tradeoff_pet_top12_seed12_60min_20260417_025716/sumo_nets/cw_9494/routes_seed47.trips.xml"/>
    <route-file value="/Users/junlee/Desktop/2026-1/js/result/tradeoff_pet_top12_seed12_60min_20260417_025716/sumo_nets/cw_9494/routes_seed47.rou.xml"/>
    <vehicle-class value="passenger"/>
    <seed value="47"/>
    <period value="1.9624228898194762"/>
</configuration>
-->

<routes xmlns:xsi="http://www.w3.org/2001/XMLSchema-instance" xsi:noNamespaceSchemaLocation="http://sumo.dlr.de/xsd/routes_file.xsd">
    <vType id="passenger" vClass="passenger"/>
    <trip id="0" depart="0.00" from="-781992371#1" to="117770535#0" type="passenger"/>
    <trip id="1" depart="1.96" from="1199502738#0" to="-899499299" type="passenger"/>
    <trip id="2" depart="3.92" from="-218684411#2" to="-899499304#0" type="passenger"/>
    <trip id="3" depart="5.89" from="-117770552#1" to="-229028020#8" type="passenger"/>
    <trip id="4" depart="7.85" from="-420086340#2" to="899499302" type="passenger"/>
    <trip id="5" depart="9.81" from="117770558#0" to="229028020#6" type="passenger"/>
    <trip id="6" depart="11.77" from="788411962#0" to="782303556" type="passenger"/>
    <trip id="7" depart="13.74" from="229028020#7" to="-381807711#0" type="passenger"/>
    <trip id="8" depart="15.70" from="218684411#0" to="-782306024" type="passenger"/>
    <trip id="9" depart="17.66" from="899499299" to="-117770552#1" type="passenger"/>
    <trip id="10" depart="19.62" from="-788411962#1" to="381807710#0" type="passenger"/>
    <trip id="11" depart="21.59" from="381802849#5" to="229028020#9" type="passenger"/>
    <trip id="12" depart="23.55" from="420086340#1" to="-381807711#2" type="passenger"/>
    <trip id="13" depart="25.51" from="519060523#2" to="788411962#1" type="passenger"/>
    <trip id="14" depart="27.47" from="-117770562#2" to="-519060523#2" type="passenger"/>
    <trip id="15" depart="29.44" from="-782306024" to="-807006809" type="passenger"/>
    <trip id="16" depart="31.40" from="218684411#4" to="-420080604#1" type="passenger"/>
    <trip id="17" depart="33.36" from="381807683#3" to="781992368#9" type="passenger"/>
    <trip id="18" depart="35.32" from="807006785#0" to="781992368#0" type="passenger"/>
    <trip id="19" depart="37.29" from="-381807711#0" to="420086340#3" type="passenger"/>
    <trip id="20" depart="39.25" from="420090510#1" to="381802851#3" type="passenger"/>
    <trip id="21" depart="41.21" from="381807703#0" to="-420086340#2" type="passenger"/>
    <trip id="22" depart="43.17" from="420090510#1" to="-381807715#1" type="passenger"/>
    <trip id="23" depart="45.14" from="229028020#4" to="-420086339#0" type="passenger"/>
    <trip id="24" depart="47.10" from="218684411#3" to="-117770562#1" type="passenger"/>
    <trip id="25" depart="49.06" from="-519060520#0" to="420093962#1" type="passenger"/>
    <trip id="26" depart="51.02" from="-420086340#1" to="420086340#0" type="passenger"/>
    <trip id="27" depart="52.99" from="519060520#1" to="381802855" type="passenger"/>
    <trip id="28" depart="54.95" from="381802865#0" to="-381807705" type="passenger"/>
    <trip id="29" depart="56.91" from="117770558#1" to="899499301#3" type="passenger"/>
    <trip id="30" depart="58.87" from="899499304#0" to="229028020#9" type="passenger"/>
    <trip id="31" depart="60.84" from="229028020#2" to="519060522#2" type="passenger"/>
    <trip id="32" depart="62.80" from="-229028020#7" to="-420086339#1" type="passenger"/>
    <trip id="33" depart="64.76" from="519060522#1" to="229028020#6" type="passenger"/>
    <trip id="34" depart="66.72" from="420090510#4" to="117770535#1" type="passenger"/>
    <trip id="35" depart="68.68" from="788411962#0" to="-117770552#1" type="passenger"/>
    <trip id="36" depart="70.65" from="-420086340#2" to="381807683#4" type="passenger"/>
    <trip id="37" depart="72.61" from="1199502738#1" to="381807709#0" type="passenger"/>
    <trip id="38" depart="74.57" from="117770552#0" to="381807715#2" type="passenger"/>
    <trip id="39" depart="76.53" from="519060520#0" to="-519060520#0" type="passenger"/>
    <trip id="40" depart="78.50" from="-117770552#0" to="-381807715#1" type="passenger"/>
    <trip id="41" depart="80.46" from="-781992371#0" to="899499305#1" type="passenger"/>
    <trip id="42" depart="82.42" from="899499299" to="381807711#0" type="passenger"/>
    <trip id="43" depart="84.38" from="-381802851#1" to="-381802849#5" type="passenger"/>
    <trip id="44" depart="86.35" from="-871052107#0" to="-420086339#1" type="passenger"/>
    <trip id="45" depart="88.31" from="-117770538#0" to="-381802849#2" type="passenger"/>
    <trip id="46" depart="90.27" from="-229028020#4" to="-117770549#0" type="passenger"/>
    <trip id="47" depart="92.23" from="-218684411#2" to="-381807683#3" type="passenger"/>
    <trip id="48" depart="94.20" from="1199502738#0" to="117770562#1" type="passenger"/>
    <trip id="49" depart="96.16" from="420090510#4" to="519060522#4" type="passenger"/>
    <trip id="50" depart="98.12" from="-117770549#0" to="-229028020#1" type="passenger"/>
    <trip id="51" depart="100.08" from="-612506388#0" to="781992368#3" type="passenger"/>
    <trip id="52" depart="102.05" from="781992368#3" to="-381807711#1" type="passenger"/>
    <trip id="53" depart="104.01" from="-229028020#2" to="-381802849#2" type="passenger"/>
    <trip id="54" depart="105.97" from="-229028020#8" to="-218684411#1" type="passenger"/>
    <trip id="55" depart="107.93" from="229028020#2" to="-381807715#1" type="passenger"/>
    <trip id="56" depart="109.90" from="781992368#9" to="229028020#3" type="passenger"/>
    <trip id="57" depart="111.86" from="229028020#3" to="420090510#4" type="passenger"/>
    <trip id="58" depart="113.82" from="381802855" to="899499305#0" type="passenger"/>
    <trip id="59" depart="115.78" from="-229028020#7" to="117770562#2" type="passenger"/>
    <trip id="60" depart="117.75" from="229028020#4" to="899499300" type="passenger"/>
    <trip id="61" depart="119.71" from="-899499303#1" to="-781992371#1" type="passenger"/>
    <trip id="62" depart="121.67" from="-420093962#0" to="781992367#1" type="passenger"/>
    <trip id="63" depart="123.63" from="899499301#3" to="-381802849#1" type="passenger"/>
    <trip id="64" depart="125.60" from="519060522#3" to="117770535#1" type="passenger"/>
    <trip id="65" depart="127.56" from="229028020#6" to="420090510#4" type="passenger"/>
    <trip id="66" depart="129.52" from="420090510#4" to="117770562#1" type="passenger"/>
    <trip id="67" depart="131.48" from="-381802849#4" to="-381807715#2" type="passenger"/>
    <trip id="68" depart="133.44" from="519060520#0" to="-381807683#0" type="passenger"/>
    <trip id="69" depart="135.41" from="-117770552#1" to="-229028020#7" type="passenger"/>
    <trip id="70" depart="137.37" from="117770539" to="117770552#0" type="passenger"/>
    <trip id="71" depart="139.33" from="-420090510#1" to="229028020#6" type="passenger"/>
    <trip id="72" depart="141.29" from="899499300" to="-381807688#0" type="passenger"/>
    <trip id="73" depart="143.26" from="381807703#1" to="-117770562#1" type="passenger"/>
    <trip id="74" depart="145.22" from="-420086340#1" to="117770558#3" type="passenger"/>
    <trip id="75" depart="147.18" from="781992368#3" to="381807715#2" type="passenger"/>
    <trip id="76" depart="149.14" from="381802849#5" to="229028020#4" type="passenger"/>
    <trip id="77" depart="151.11" from="420093962#0" to="381802849#3" type="passenger"/>
    <trip id="78" depart="153.07" from="-899499303#1" to="381807709#2" type="passenger"/>
    <trip id="79" depart="155.03" from="781992370" to="420086340#0" type="passenger"/>
    <trip id="80" depart="156.99" from="-229028020#9" to="896413216#1" type="passenger"/>
    <trip id="81" depart="158.96" from="1199502738#0" to="-420090510#4" type="passenger"/>
    <trip id="82" depart="160.92" from="-782303556" to="-229028020#9" type="passenger"/>
    <trip id="83" depart="162.88" from="807006809" to="781992368#11" type="passenger"/>
    <trip id="84" depart="164.84" from="420086339#0" to="-782306024" type="passenger"/>
    <trip id="85" depart="166.81" from="-781992371#1" to="781992368#3" type="passenger"/>
    <trip id="86" depart="168.77" from="807006785#0" to="381807683#2" type="passenger"/>
    <trip id="87" depart="170.73" from="-420086340#3" to="-381807707" type="passenger"/>
    <trip id="88" depart="172.69" from="-381807709#2" to="781992368#10" type="passenger"/>
    <trip id="89" depart="174.66" from="519060522#2" to="899499301#0" type="passenger"/>
    <trip id="90" depart="176.62" from="117770535#2" to="420093962#0" type="passenger"/>
    <trip id="91" depart="178.58" from="-519060523#0" to="381807709#0" type="passenger"/>
    <trip id="92" depart="180.54" from="-381802873" to="117770558#2" type="passenger"/>
    <trip id="93" depart="182.51" from="1199502738#2" to="381802857" type="passenger"/>
    <trip id="94" depart="184.47" from="781992368#0" to="-420090510#1" type="passenger"/>
    <trip id="95" depart="186.43" from="-899499304#1" to="117770562#3" type="passenger"/>
    <trip id="96" depart="188.39" from="1199502738#0" to="-420093962#0" type="passenger"/>
    <trip id="97" depart="190.36" from="-117770552#1" to="381802855" type="passenger"/>
    <trip id="98" depart="192.32" from="781992368#2" to="781992368#11" type="passenger"/>
    <trip id="99" depart="194.28" from="782306024" to="381802849#6" type="passenger"/>
    <trip id="100" depart="196.24" from="381802849#4" to="381802873" type="passenger"/>
    <trip id="101" depart="198.20" from="117770549#0" to="229028020#9" type="passenger"/>
    <trip id="102" depart="200.17" from="381807703#1" to="-807006785#2" type="passenger"/>
    <trip id="103" depart="202.13" from="-218684411#2" to="381802857" type="passenger"/>
    <trip id="104" depart="204.09" from="-381807702#1" to="-229028020#2" type="passenger"/>
    <trip id="105" depart="206.05" from="-899499303#1" to="-381807710#0" type="passenger"/>
    <trip id="106" depart="208.02" from="-381807688#0" to="381802851#2" type="passenger"/>
    <trip id="107" depart="209.98" from="-117770538#0" to="-381802849#6" type="passenger"/>
    <trip id="108" depart="211.94" from="-229028020#5" to="-871052107#0" type="passenger"/>
    <trip id="109" depart="213.90" from="-807006809" to="420086340#2" type="passenger"/>
    <trip id="110" depart="215.87" from="381802873" to="420086340#0" type="passenger"/>
    <trip id="111" depart="217.83" from="1199502738#0" to="-229028020#8" type="passenger"/>
    <trip id="112" depart="219.79" from="420090510#5" to="-899499303#1" type="passenger"/>
    <trip id="113" depart="221.75" from="781992368#8" to="-229028020#8" type="passenger"/>
    <trip id="114" depart="223.72" from="381802855" to="782306024" type="passenger"/>
    <trip id="115" depart="225.68" from="117770562#1" to="117770535#2" type="passenger"/>
    <trip id="116" depart="227.64" from="519060522#4" to="-899499300" type="passenger"/>
    <trip id="117" depart="229.60" from="117770562#3" to="117770535#0" type="passenger"/>
    <trip id="118" depart="231.57" from="782306024" to="-519060520#0" type="passenger"/>
    <trip id="119" depart="233.53" from="381807711#1" to="117770562#1" type="passenger"/>
    <trip id="120" depart="235.49" from="381807683#3" to="-229028020#8" type="passenger"/>
    <trip id="121" depart="237.45" from="117770558#1" to="899499303#1" type="passenger"/>
    <trip id="122" depart="239.42" from="-782303556" to="-117770552#0" type="passenger"/>
    <trip id="123" depart="241.38" from="381802857" to="-229028020#3" type="passenger"/>
    <trip id="124" depart="243.34" from="-381807711#2" to="381807683#4" type="passenger"/>
    <trip id="125" depart="245.30" from="117770562#3" to="420080604#1" type="passenger"/>
    <trip id="126" depart="247.27" from="420086340#2" to="-420090510#5" type="passenger"/>
    <trip id="127" depart="249.23" from="381802849#6" to="788411962#1" type="passenger"/>
    <trip id="128" depart="251.19" from="-229028020#2" to="420080604#2" type="passenger"/>
    <trip id="129" depart="253.15" from="381802851#1" to="-117770538#0" type="passenger"/>
    <trip id="130" depart="255.11" from="781992368#2" to="381802855" type="passenger"/>
    <trip id="131" depart="257.08" from="381802865#0" to="229028020#8" type="passenger"/>
    <trip id="132" depart="259.04" from="519060520#1" to="-229028020#9" type="passenger"/>
    <trip id="133" depart="261.00" from="-229028020#3" to="381802849#6" type="passenger"/>
    <trip id="134" depart="262.96" from="-420080604#1" to="781992368#3" type="passenger"/>
    <trip id="135" depart="264.93" from="-229028020#6" to="218684411#3" type="passenger"/>
    <trip id="136" depart="266.89" from="381807715#1" to="-229028020#2" type="passenger"/>
    <trip id="137" depart="268.85" from="-381802851#1" to="-899499299" type="passenger"/>
    <trip id="138" depart="270.81" from="-781992371#1" to="899499301#3" type="passenger"/>
    <trip id="139" depart="272.78" from="-420090510#6" to="381807683#3" type="passenger"/>
    <trip id="140" depart="274.74" from="381807703#1" to="-781992371#0" type="passenger"/>
    <trip id="141" depart="276.70" from="-229028020#9" to="-420093962#0" type="passenger"/>
    <trip id="142" depart="278.66" from="-117770562#3" to="519060522#4" type="passenger"/>
    <trip id="143" depart="280.63" from="-381802851#3" to="-519060523#1" type="passenger"/>
    <trip id="144" depart="282.59" from="899499301#3" to="612506388#0" type="passenger"/>
    <trip id="145" depart="284.55" from="420090510#0" to="381807703#1" type="passenger"/>
    <trip id="146" depart="286.51" from="229028020#2" to="420090510#1" type="passenger"/>
    <trip id="147" depart="288.48" from="381807703#1" to="-781992371#1" type="passenger"/>
    <trip id="148" depart="290.44" from="1199502738#2" to="-908057245" type="passenger"/>
    <trip id="149" depart="292.40" from="117770535#1" to="381807709#0" type="passenger"/>
    <trip id="150" depart="294.36" from="420080604#0" to="-117770549#1" type="passenger"/>
    <trip id="151" depart="296.33" from="899499301#0" to="-117770562#3" type="passenger"/>
    <trip id="152" depart="298.29" from="896413216#0" to="782303556" type="passenger"/>
    <trip id="153" depart="300.25" from="117770535#1" to="381802849#4" type="passenger"/>
    <trip id="154" depart="302.21" from="420080604#2" to="-218684411#2" type="passenger"/>
    <trip id="155" depart="304.18" from="899499302" to="420090510#1" type="passenger"/>
    <trip id="156" depart="306.14" from="782306024" to="381807707" type="passenger"/>
    <trip id="157" depart="308.10" from="117770552#0" to="788411962#1" type="passenger"/>
    <trip id="158" depart="310.06" from="1199502738#2" to="381807711#0" type="passenger"/>
    <trip id="159" depart="312.03" from="-381807709#0" to="-117770549#1" type="passenger"/>
    <trip id="160" depart="313.99" from="381807703#0" to="420090510#6" type="passenger"/>
    <trip id="161" depart="315.95" from="-229028020#5" to="420086340#3" type="passenger"/>
    <trip id="162" depart="317.91" from="781992371#0" to="-420090510#3" type="passenger"/>
    <trip id="163" depart="319.87" from="381807683#1" to="781992368#10" type="passenger"/>
    <trip id="164" depart="321.84" from="-381807707" to="-381807709#0" type="passenger"/>
    <trip id="165" depart="323.80" from="781992371#0" to="-381802849#5" type="passenger"/>
    <trip id="166" depart="325.76" from="899499301#0" to="381802865#0" type="passenger"/>
    <trip id="167" depart="327.72" from="519060520#0" to="519060522#4" type="passenger"/>
    <trip id="168" depart="329.69" from="-420093962#0" to="381807707" type="passenger"/>
    <trip id="169" depart="331.65" from="-899499304#1" to="-899499304#1" type="passenger"/>
    <trip id="170" depart="333.61" from="-899499304#0" to="420090510#3" type="passenger"/>
    <trip id="171" depart="335.57" from="899499300" to="-117770562#2" type="passenger"/>
    <trip id="172" depart="337.54" from="229028020#6" to="381807710#0" type="passenger"/>
    <trip id="173" depart="339.50" from="-229028020#2" to="-117770549#1" type="passenger"/>
    <trip id="174" depart="341.46" from="-381807705" to="-899499304#0" type="passenger"/>
    <trip id="175" depart="343.42" from="1199502738#2" to="-781992371#0" type="passenger"/>
    <trip id="176" depart="345.39" from="899499301#0" to="781992368#4" type="passenger"/>
    <trip id="177" depart="347.35" from="908057245" to="381802873" type="passenger"/>
    <trip id="178" depart="349.31" from="117770535#1" to="612506388#1" type="passenger"/>
    <trip id="179" depart="351.27" from="117770552#0" to="-218684411#3" type="passenger"/>
    <trip id="180" depart="353.24" from="-381807683#2" to="-381807711#0" type="passenger"/>
    <trip id="181" depart="355.20" from="-899499304#1" to="519060522#0" type="passenger"/>
    <trip id="182" depart="357.16" from="-420090510#6" to="-381802849#0" type="passenger"/>
    <trip id="183" depart="359.12" from="229028020#6" to="-117770538#1" type="passenger"/>
    <trip id="184" depart="361.09" from="218684411#3" to="229028020#3" type="passenger"/>
    <trip id="185" depart="363.05" from="117770552#0" to="899499301#3" type="passenger"/>
    <trip id="186" depart="365.01" from="-519060523#3" to="788411962#0" type="passenger"/>
    <trip id="187" depart="366.97" from="381807702#1" to="381802849#5" type="passenger"/>
    <trip id="188" depart="368.94" from="-519060523#1" to="519060522#4" type="passenger"/>
    <trip id="189" depart="370.90" from="218684411#4" to="781992371#1" type="passenger"/>
    <trip id="190" depart="372.86" from="-381802849#3" to="-420093962#0" type="passenger"/>
    <trip id="191" depart="374.82" from="-218684411#3" to="-381807709#1" type="passenger"/>
    <trip id="192" depart="376.79" from="519060522#2" to="229028020#1" type="passenger"/>
    <trip id="193" depart="378.75" from="381802851#2" to="-117770552#1" type="passenger"/>
    <trip id="194" depart="380.71" from="229028020#4" to="-117770562#3" type="passenger"/>
    <trip id="195" depart="382.67" from="781992368#9" to="117770552#0" type="passenger"/>
    <trip id="196" depart="384.63" from="-229028020#9" to="-420086340#0" type="passenger"/>
    <trip id="197" depart="386.60" from="381807703#0" to="381807683#2" type="passenger"/>
    <trip id="198" depart="388.56" from="-899499300" to="-781992371#0" type="passenger"/>
    <trip id="199" depart="390.52" from="781992368#7" to="-420090510#4" type="passenger"/>
    <trip id="200" depart="392.48" from="381807711#2" to="-117770562#3" type="passenger"/>
    <trip id="201" depart="394.45" from="788411962#0" to="117770552#0" type="passenger"/>
    <trip id="202" depart="396.41" from="420080604#0" to="-519060523#2" type="passenger"/>
    <trip id="203" depart="398.37" from="-229028020#9" to="781992368#10" type="passenger"/>
    <trip id="204" depart="400.33" from="-381802849#1" to="-807006785#2" type="passenger"/>
    <trip id="205" depart="402.30" from="-381807688#0" to="-117770552#0" type="passenger"/>
    <trip id="206" depart="404.26" from="229028020#8" to="381807709#0" type="passenger"/>
    <trip id="207" depart="406.22" from="519060522#0" to="899499303#1" type="passenger"/>
    <trip id="208" depart="408.18" from="-381802851#1" to="-381807710#0" type="passenger"/>
    <trip id="209" depart="410.15" from="381807711#0" to="381802849#3" type="passenger"/>
    <trip id="210" depart="412.11" from="-381802851#1" to="420090510#6" type="passenger"/>
    <trip id="211" depart="414.07" from="420080604#2" to="420086340#2" type="passenger"/>
    <trip id="212" depart="416.03" from="519060522#3" to="-381802851#2" type="passenger"/>
    <trip id="213" depart="418.00" from="-117770562#3" to="-381807715#1" type="passenger"/>
    <trip id="214" depart="419.96" from="420080604#0" to="-381802849#3" type="passenger"/>
    <trip id="215" depart="421.92" from="781992371#1" to="-381802849#5" type="passenger"/>
    <trip id="216" depart="423.88" from="1199502738#2" to="-381802849#3" type="passenger"/>
    <trip id="217" depart="425.85" from="229028020#7" to="781992368#8" type="passenger"/>
    <trip id="218" depart="427.81" from="229028020#2" to="899499301#3" type="passenger"/>
    <trip id="219" depart="429.77" from="381802851#2" to="381802849#4" type="passenger"/>
    <trip id="220" depart="431.73" from="-117770552#1" to="420093962#1" type="passenger"/>
    <trip id="221" depart="433.70" from="381802849#4" to="381802849#3" type="passenger"/>
    <trip id="222" depart="435.66" from="381802873" to="-381802851#1" type="passenger"/>
    <trip id="223" depart="437.62" from="-381807715#1" to="-381802849#1" type="passenger"/>
    <trip id="224" depart="439.58" from="781992368#9" to="-420086340#2" type="passenger"/>
    <trip id="225" depart="441.55" from="117770558#1" to="519060522#3" type="passenger"/>
    <trip id="226" depart="443.51" from="381802849#6" to="-899499303#0" type="passenger"/>
    <trip id="227" depart="445.47" from="807006785#0" to="117770538#1" type="passenger"/>
    <trip id="228" depart="447.43" from="420090510#5" to="781992368#7" type="passenger"/>
    <trip id="229" depart="449.39" from="-788411962#1" to="-420090510#4" type="passenger"/>
    <trip id="230" depart="451.36" from="781992370" to="-899499300" type="passenger"/>
    <trip id="231" depart="453.32" from="519060522#4" to="-117770562#0" type="passenger"/>
    <trip id="232" depart="455.28" from="420086340#1" to="-420086339#1" type="passenger"/>
    <trip id="233" depart="457.24" from="117770549#1" to="-229028020#7" type="passenger"/>
    <trip id="234" depart="459.21" from="781992368#4" to="381807703#1" type="passenger"/>
    <trip id="235" depart="461.17" from="381802849#3" to="-788411962#1" type="passenger"/>
    <trip id="236" depart="463.13" from="381807683#1" to="781992371#0" type="passenger"/>
    <trip id="237" depart="465.09" from="381807688#2" to="381802849#2" type="passenger"/>
    <trip id="238" depart="467.06" from="-381802867" to="-420080604#2" type="passenger"/>
    <trip id="239" depart="469.02" from="519060520#0" to="-899499303#1" type="passenger"/>
    <trip id="240" depart="470.98" from="381807711#2" to="-381802851#2" type="passenger"/>
    <trip id="241" depart="472.94" from="896413216#1" to="-519060523#1" type="passenger"/>
    <trip id="242" depart="474.91" from="381807688#0" to="-381807705" type="passenger"/>
    <trip id="243" depart="476.87" from="899499301#3" to="381807707" type="passenger"/>
    <trip id="244" depart="478.83" from="-381807688#0" to="781992368#8" type="passenger"/>
    <trip id="245" depart="480.79" from="788411962#1" to="381807705" type="passenger"/>
    <trip id="246" depart="482.76" from="-420086339#1" to="381807711#1" type="passenger"/>
    <trip id="247" depart="484.72" from="229028020#6" to="-381807711#0" type="passenger"/>
    <trip id="248" depart="486.68" from="519060523#0" to="-519060521" type="passenger"/>
    <trip id="249" depart="488.64" from="420093962#0" to="229028020#5" type="passenger"/>
    <trip id="250" depart="490.61" from="420093962#0" to="-420080604#0" type="passenger"/>
    <trip id="251" depart="492.57" from="-218684411#2" to="896413216#0" type="passenger"/>
    <trip id="252" depart="494.53" from="781992368#9" to="-381807683#1" type="passenger"/>
    <trip id="253" depart="496.49" from="381802851#1" to="420086340#0" type="passenger"/>
    <trip id="254" depart="498.46" from="381807715#2" to="807006809" type="passenger"/>
    <trip id="255" depart="500.42" from="-381807707" to="519060522#2" type="passenger"/>
    <trip id="256" depart="502.38" from="381807691" to="117770552#1" type="passenger"/>
    <trip id="257" depart="504.34" from="229028020#2" to="229028020#4" type="passenger"/>
    <trip id="258" depart="506.31" from="-420086340#0" to="-381802849#6" type="passenger"/>
    <trip id="259" depart="508.27" from="381807691" to="218684411#3" type="passenger"/>
    <trip id="260" depart="510.23" from="420086339#1" to="381807705" type="passenger"/>
    <trip id="261" depart="512.19" from="-381807709#2" to="381802851#1" type="passenger"/>
    <trip id="262" depart="514.15" from="781992368#11" to="-420080604#1" type="passenger"/>
    <trip id="263" depart="516.12" from="-782303556" to="-807006785#0" type="passenger"/>
    <trip id="264" depart="518.08" from="381807683#3" to="-381807710#0" type="passenger"/>
    <trip id="265" depart="520.04" from="-420086339#2" to="381802855" type="passenger"/>
    <trip id="266" depart="522.00" from="381807709#1" to="-519060521" type="passenger"/>
    <trip id="267" depart="523.97" from="-117770562#3" to="899499303#0" type="passenger"/>
    <trip id="268" depart="525.93" from="-381807709#2" to="117770538#0" type="passenger"/>
    <trip id="269" depart="527.89" from="788411962#1" to="-519060523#0" type="passenger"/>
    <trip id="270" depart="529.85" from="-381802849#4" to="381802849#6" type="passenger"/>
    <trip id="271" depart="531.82" from="781992368#4" to="788411962#0" type="passenger"/>
    <trip id="272" depart="533.78" from="-612506388#1" to="-229028020#6" type="passenger"/>
    <trip id="273" depart="535.74" from="-381807709#2" to="420090510#4" type="passenger"/>
    <trip id="274" depart="537.70" from="-420086340#3" to="908057245" type="passenger"/>
    <trip id="275" depart="539.67" from="-381807711#0" to="381807709#2" type="passenger"/>
    <trip id="276" depart="541.63" from="117770562#0" to="-807006809" type="passenger"/>
    <trip id="277" depart="543.59" from="-117770552#1" to="420090510#5" type="passenger"/>
    <trip id="278" depart="545.55" from="381802849#3" to="-229028020#9" type="passenger"/>
    <trip id="279" depart="547.52" from="781992367#1" to="420090510#0" type="passenger"/>
    <trip id="280" depart="549.48" from="-229028020#8" to="381807683#4" type="passenger"/>
    <trip id="281" depart="551.44" from="781992368#3" to="-381807710#0" type="passenger"/>
    <trip id="282" depart="553.40" from="-229028020#8" to="899499305#1" type="passenger"/>
    <trip id="283" depart="555.37" from="-519060520#0" to="-807006785#0" type="passenger"/>
    <trip id="284" depart="557.33" from="-381802849#5" to="381807711#0" type="passenger"/>
    <trip id="285" depart="559.29" from="117770538#1" to="420090510#5" type="passenger"/>
    <trip id="286" depart="561.25" from="381807683#4" to="229028020#4" type="passenger"/>
    <trip id="287" depart="563.22" from="-612506388#1" to="381802849#1" type="passenger"/>
    <trip id="288" depart="565.18" from="908057245" to="519060522#0" type="passenger"/>
    <trip id="289" depart="567.14" from="420093962#0" to="420086340#1" type="passenger"/>
    <trip id="290" depart="569.10" from="420093962#0" to="-420086339#0" type="passenger"/>
    <trip id="291" depart="571.07" from="381802849#3" to="-229028020#2" type="passenger"/>
    <trip id="292" depart="573.03" from="117770539" to="-381807709#1" type="passenger"/>
    <trip id="293" depart="574.99" from="1199502738#0" to="-420086340#2" type="passenger"/>
    <trip id="294" depart="576.95" from="117770535#0" to="899499305#1" type="passenger"/>
    <trip id="295" depart="578.91" from="381802851#1" to="781992368#10" type="passenger"/>
    <trip id="296" depart="580.88" from="381807683#1" to="-519060523#1" type="passenger"/>
    <trip id="297" depart="582.84" from="381807683#0" to="781992368#4" type="passenger"/>
    <trip id="298" depart="584.80" from="519060522#3" to="-381807688#0" type="passenger"/>
    <trip id="299" depart="586.76" from="420086339#2" to="-117770552#0" type="passenger"/>
    <trip id="300" depart="588.73" from="381802851#1" to="218684411#2" type="passenger"/>
    <trip id="301" depart="590.69" from="781992370" to="381802851#3" type="passenger"/>
    <trip id="302" depart="592.65" from="420080604#1" to="-420090510#1" type="passenger"/>
    <trip id="303" depart="594.61" from="420086339#1" to="781992368#0" type="passenger"/>
    <trip id="304" depart="596.58" from="-788411962#1" to="-381802857" type="passenger"/>
    <trip id="305" depart="598.54" from="381807715#2" to="-229028020#2" type="passenger"/>
    <trip id="306" depart="600.50" from="-871052107#0" to="117770552#0" type="passenger"/>
    <trip id="307" depart="602.46" from="381807709#0" to="-420090510#1" type="passenger"/>
    <trip id="308" depart="604.43" from="117770562#0" to="381802873" type="passenger"/>
    <trip id="309" depart="606.39" from="899499301#0" to="-519060523#2" type="passenger"/>
    <trip id="310" depart="608.35" from="381807709#0" to="519060523#1" type="passenger"/>
    <trip id="311" depart="610.31" from="781992371#0" to="781992368#10" type="passenger"/>
    <trip id="312" depart="612.28" from="-908057245" to="-420080604#1" type="passenger"/>
    <trip id="313" depart="614.24" from="-381807683#2" to="-381807683#4" type="passenger"/>
    <trip id="314" depart="616.20" from="-381807715#1" to="-420090510#5" type="passenger"/>
    <trip id="315" depart="618.16" from="-381807711#0" to="381802849#2" type="passenger"/>
    <trip id="316" depart="620.13" from="-117770552#1" to="-117770538#1" type="passenger"/>
    <trip id="317" depart="622.09" from="-420090510#3" to="229028020#7" type="passenger"/>
    <trip id="318" depart="624.05" from="117770538#1" to="-117770562#3" type="passenger"/>
    <trip id="319" depart="626.01" from="782306024" to="420080604#2" type="passenger"/>
    <trip id="320" depart="627.98" from="420080604#1" to="-899499301#0" type="passenger"/>
    <trip id="321" depart="629.94" from="-381807703#1" to="-117770562#2" type="passenger"/>
    <trip id="322" depart="631.90" from="381807702#1" to="229028020#3" type="passenger"/>