<?xml version="1.0" encoding="UTF-8"?>

<!-- generated on 2026-04-15T03:00:38.306377+09:00 by Eclipse SUMO netconvert 1.26.0
<netconvertConfiguration xmlns:xsi="http://www.w3.org/2001/XMLSchema-instance" xsi:noNamespaceSchemaLocation="http://sumo.dlr.de/xsd/netconvertConfiguration.xsd">

    <input>
        <osm-files value="/Users/junlee/Desktop/2026-1/js/result/report_top12_seed4_2h/sumo_nets/cw_6213/map.osm"/>
    </input>

    <output>
        <output-file value="/Users/junlee/Desktop/2026-1/js/result/report_top12_seed4_2h/sumo_nets/cw_6213/network.net.xml"/>
    </output>

    <projection>
        <proj.utm value="true"/>
    </projection>

    <processing>
        <geometry.remove value="true"/>
        <roundabouts.guess value="true"/>
    </processing>

    <tls_building>
        <tls.guess value="true"/>
        <tls.guess-signals value="true"/>
    </tls_building>

    <ramp_guessing>
        <ramps.guess value="true"/>
    </ramp_guessing>

    <edge_removal>
        <keep-edges.by-vclass value="passenger,pedestrian"/>
    </edge_removal>

    <junctions>
        <no-turnarounds value="true"/>
        <junctions.join value="true"/>
    </junctions>

    <pedestrian>
        <sidewalks.guess value="true"/>
        <sidewalks.guess.max-speed value="13.89"/>
        <crossings.guess value="true"/>
    </pedestrian>

    <report>
        <verbose value="true"/>
    </report>

</netconvertConfiguration>
-->

<net version="1.20" junctionCornerDetail="5" walkingareas="true" limitTurnSpeed="5.50" xmlns:xsi="http://www.w3.org/2001/XMLSchema-instance" xsi:noNamespaceSchemaLocation="http://sumo.dlr.de/xsd/net_file.xsd">

    <location netOffset="-320494.20,-4157449.01" convBoundary="0.00,0.00,1275.08,1521.38" origBoundary="126.967779,37.546803,126.988830,37.561120" projParameter="+proj=utm +zone=52 +ellps=WGS84 +datum=WGS84 +units=m +no_defs"/>

    <type id="highway.footway" priority="1" numLanes="1" speed="2.78" allow="pedestrian" oneway="1" width="2.00"/>
    <type id="highway.path" priority="1" numLanes="1" speed="5.56" allow="pedestrian bicycle" oneway="0" width="2.00"/>
    <type id="highway.pedestrian" priority="1" numLanes="1" speed="2.78" allow="pedestrian" oneway="1" width="2.00"/>
    <type id="highway.primary" priority="12" numLanes="2" speed="27.78" disallow="tram rail_urban rail rail_electric rail_fast ship container cable_car subway aircraft wheelchair scooter drone" oneway="0"/>
    <type id="highway.residential" priority="3" numLanes="1" speed="13.89" disallow="tram rail_urban rail rail_electric rail_fast ship container cable_car subway aircraft wheelchair scooter drone" oneway="0"/>
    <type id="highway.secondary" priority="11" numLanes="1" speed="27.78" disallow="tram rail_urban rail rail_electric rail_fast ship container cable_car subway aircraft wheelchair scooter drone" oneway="0"/>
    <type id="highway.secondary_link" priority="6" numLanes="1" speed="22.22" disallow="tram rail_urban rail rail_electric rail_fast ship container cable_car subway aircraft wheelchair scooter drone" oneway="0"/>
    <type id="highway.service" priority="1" numLanes="1" speed="5.56" allow="pedestrian delivery bicycle" oneway="0"/>
    <type id="highway.steps" priority="1" numLanes="1" speed="1.39" allow="pedestrian" oneway="1" width="2.00"/>
    <type id="highway.unclassified" priority="4" numLanes="1" speed="13.89" disallow="tram rail_urban rail rail_electric rail_fast ship container cable_car subway aircraft wheelchair scooter drone" oneway="0"/>

    <edge id=":10253014033_0" function="internal">
        <lane id=":10253014033_0_0" index="0" disallow="tram rail_urban rail rail_electric rail_fast ship container cable_car subway aircraft wheelchair scooter drone" speed="27.78" length="5.26" shape="1140.77,941.65 1136.50,944.73"/>
    </edge>
    <edge id=":10253014033_w0" function="walkingarea">
        <lane id=":10253014033_w0_0" index="0" allow="pedestrian" speed="2.78" length="4.72" width="3.20" shape="1139.68,946.25 1141.36,945.16 1141.01,944.32 1141.01,943.94 1141.13,943.59 1141.36,943.26 1141.71,942.95 1139.84,940.35 1138.91,940.77 1138.44,940.79 1137.98,940.68 1137.51,940.44 1137.05,940.07 1135.69,941.53 1136.16,942.20 1136.20,942.52 1136.12,942.83 1135.91,943.14 1135.57,943.43 1137.44,946.03 1138.32,945.59 1138.71,945.57 1139.07,945.67 1139.39,945.90"/>
    </edge>
    <edge id=":10727322978_0" function="internal">
        <lane id=":10727322978_0_0" index="0" disallow="tram rail_urban rail rail_electric rail_fast ship container cable_car subway aircraft wheelchair scooter drone" speed="27.78" length="5.95" shape="810.73,1221.64 805.42,1218.86"/>
        <lane id=":10727322978_0_1" index="1" disallow="tram rail_urban rail rail_electric rail_fast ship container cable_car subway aircraft wheelchair scooter drone" speed="27.78" length="5.95" shape="812.19,1218.79 806.96,1216.06"/>
    </edge>
    <edge id=":10727322978_w0" function="walkingarea">
        <lane id=":10727322978_w0_0" index="0" allow="pedestrian" speed="2.78" length="5.10" width="3.20" shape="806.70,1223.93 808.70,1223.87 808.83,1223.12 809.00,1222.92 809.26,1222.85 809.59,1222.89 809.99,1223.06 812.92,1217.37 807.73,1214.65 804.65,1220.27 805.77,1221.14 806.16,1221.70 806.45,1222.35 806.63,1223.09"/>
    </edge>
    <edge id=":11059693772_0" function="internal">
        <lane id=":11059693772_0_0" index="0" disallow="tram rail_urban rail rail_electric rail_fast ship container cable_car subway aircraft wheelchair scooter drone" speed="27.78" length="0.30" shape="789.18,935.85 789.38,935.63"/>
    </edge>
    <edge id=":11203001813_0" function="internal">
        <lane id=":11203001813_0_0" index="0" disallow="tram rail_urban rail rail_electric rail_fast ship container cable_car subway aircraft wheelchair scooter drone" speed="27.78" length="0.30" shape="721.38,1495.76 721.40,1496.06"/>
    </edge>
    <edge id=":11225387918_0" function="internal">
        <lane id=":11225387918_0_0" index="0" disallow="tram rail_urban rail rail_electric rail_fast ship container cable_car subway aircraft wheelchair scooter drone" speed="27.78" length="5.12" shape="837.07,1027.63 832.15,1026.23"/>
    </edge>
    <edge id=":11225387918_w0" function="walkingarea">
        <lane id=":11225387918_w0_0" index="0" allow="pedestrian" speed="2.78" length="4.60" width="3.20" shape="836.63,1029.17 837.51,1026.09 836.69,1025.67 836.44,1025.37 836.30,1025.02 836.26,1024.60 836.34,1024.12 834.39,1023.64 834.03,1024.40 833.76,1024.62 833.43,1024.75 833.04,1024.77 832.59,1024.69 831.71,1027.76 832.53,1028.17 832.78,1028.47 832.92,1028.83 832.96,1029.24 832.88,1029.72 834.82,1030.21 835.18,1029.44 835.46,1029.22 835.79,1029.10 836.18,1029.08"/>
    </edge>
    <edge id=":11340902117_w0" function="walkingarea">
        <lane id=":11340902117_w0_0" index="0" allow="pedestrian" speed="2.78" length="3.97" width="2.00" shape="751.11,876.17 753.10,875.97 752.96,874.35 752.95,873.77 753.00,873.20 753.12,872.52 753.29,871.60 751.33,871.21 750.99,872.03 750.71,872.32 750.36,872.52 749.93,872.65 749.44,872.70 749.46,874.70 750.31,874.85 750.62,875.06 750.86,875.35 751.02,875.72"/>
    </edge>
    <edge id=":11449715462_w0" function="walkingarea">
        <lane id=":11449715462_w0_0" index="0" allow="pedestrian" speed="2.78" length="3.99" width="2.00" shape="949.56,1166.25 950.23,1164.36 948.51,1163.69 947.91,1163.44 947.30,1163.23 946.54,1163.04 945.50,1162.84 944.80,1164.75 945.56,1165.05 945.76,1165.30 945.85,1165.61 945.82,1165.99 945.68,1166.44 947.52,1167.21 948.02,1166.45 948.34,1166.24 948.70,1166.13 949.11,1166.13"/>
    </edge>
    <edge id=":11449715463_0" function="internal">
        <lane id=":11449715463_0_0" index="0" disallow="pedestrian tram rail_urban rail rail_electric rail_fast ship container cable_car subway aircraft wheelchair scooter drone" speed="13.89" length="5.05" shape="937.57,1198.33 932.60,1197.42"/>
    </edge>
    <edge id=":11449715463_1" function="internal">
        <lane id=":11449715463_1_0" index="0" disallow="pedestrian tram rail_urban rail rail_electric rail_fast ship container cable_car subway aircraft wheelchair scooter drone" speed="13.89" length="5.05" shape="933.17,1194.27 938.14,1195.18"/>
    </edge>
    <edge id=":11449715463_c0" function="crossing" crossingEdges="315658897#1 -315658897#1">
        <lane id=":11449715463_c0_0" index="0" allow="pedestrian" speed="2.78" length="6.40" width="4.00" shape="935.95,1193.15 934.80,1199.45" outlineShape="937.93,1193.41 936.75,1199.90 932.83,1199.09 933.98,1192.79"/>
    </edge>
    <edge id=":11449715463_w0" function="walkingarea">
        <lane id=":11449715463_w0_0" index="0" allow="pedestrian" speed="2.78" length="3.49" width="4.00" shape="932.31,1198.99 931.95,1200.96 936.92,1201.87 937.28,1199.90 936.76,1199.80 932.83,1199.09"/>
    </edge>
    <edge id=":11449715463_w1" function="walkingarea">
        <lane id=":11449715463_w1_0" index="0" allow="pedestrian" speed="2.78" length="3.59" width="4.00" shape="933.98,1192.79 937.91,1193.51 938.43,1193.60 938.79,1191.64 937.90,1189.98 936.05,1189.21 933.82,1190.73 933.46,1192.70"/>
    </edge>
    <edge id=":11449716078_0" function="internal">
        <lane id=":11449716078_0_0" index="0" allow="pedestrian delivery bicycle" speed="7.16" length="7.31" shape="804.79,1189.97 804.96,1192.46 805.41,1194.38 806.14,1195.75 807.13,1196.56"/>
    </edge>
    <edge id=":11449716078_1" function="internal">
        <lane id=":11449716078_1_0" index="0" allow="pedestrian delivery bicycle" speed="4.72" length="5.66" shape="797.96,1192.38 799.57,1192.84 800.71,1192.60 801.38,1191.66 801.59,1190.01"/>
    </edge>
    <edge id=":11449716078_2" function="internal">
        <lane id=":11449716078_2_0" index="0" disallow="tram rail_urban rail rail_electric rail_fast ship container cable_car subway aircraft wheelchair scooter drone" speed="27.78" length="10.08" shape="797.96,1192.38 807.13,1196.56"/>
        <lane id=":11449716078_2_1" index="1" disallow="tram rail_urban rail rail_electric rail_fast ship container cable_car subway aircraft wheelchair scooter drone" speed="27.78" length="10.08" shape="796.61,1195.28 805.78,1199.46"/>
    </edge>
    <edge id=":11449716078_w0" function="walkingarea">
        <lane id=":11449716078_w0_0" index="0" allow="pedestrian" speed="2.78" length="6.74" width="6.40" shape="805.10,1200.91 807.81,1195.11 807.05,1194.26 806.78,1193.50 806.57,1192.53 806.45,1191.35 806.39,1189.94 799.99,1190.03 799.85,1190.80 799.66,1191.01 799.40,1191.10 799.06,1191.07 798.64,1190.92 795.94,1196.73"/>
    </edge>
    <edge id=":11449716191_0" function="internal">
        <lane id=":11449716191_0_0" index="0" disallow="pedestrian tram rail_urban rail rail_electric rail_fast ship container cable_car subway aircraft wheelchair scooter drone" speed="13.89" length="5.01" shape="962.60,1138.26 962.12,1143.25"/>
    </edge>
    <edge id=":11449716191_1" function="internal">
        <lane id=":11449716191_1_0" index="0" disallow="pedestrian tram rail_urban rail rail_electric rail_fast ship container cable_car subway aircraft wheelchair scooter drone" speed="13.89" length="5.01" shape="958.93,1142.94 959.42,1137.96"/>
    </edge>
    <edge id=":11449716191_c0" function="crossing" crossingEdges="-318747848#6 318747848#6">
        <lane id=":11449716191_c0_0" index="0" allow="pedestrian" speed="2.78" length="6.40" width="4.00" shape="957.58,1140.30 963.95,1140.91" outlineShape="957.68,1138.30 964.24,1138.93 964.15,1138.92 963.76,1142.90 957.39,1142.29 957.77,1138.31 957.82,1137.80 955.83,1137.61 954.20,1138.91 953.94,1140.89 955.35,1142.59 957.34,1142.79 957.39,1142.29"/>
    </edge>
    <edge id=":11449716191_w0" function="walkingarea">
        <lane id=":11449716191_w0_0" index="0" allow="pedestrian" speed="2.78" length="3.47" width="4.00" shape="963.71,1143.41 965.70,1143.61 966.18,1138.61 964.19,1138.42 964.15,1138.92 963.76,1142.90"/>
    </edge>
    <edge id=":11449716191_w1" function="walkingarea">
        <lane id=":11449716191_w1_0" index="0" allow="pedestrian" speed="2.78" length="3.51" width="4.00" shape="957.39,1142.29 957.77,1138.31 957.82,1137.80 955.83,1137.61 954.20,1138.91 953.94,1140.89 955.35,1142.59 957.34,1142.79"/>
    </edge>
    <edge id=":11449716195_0" function="internal">
        <lane id=":11449716195_0_0" index="0" disallow="pedestrian tram rail_urban rail rail_electric rail_fast ship container cable_car subway aircraft wheelchair scooter drone" speed="13.89" length="5.00" shape="965.86,1104.51 965.38,1109.49"/>
    </edge>
    <edge id=":11449716195_1" function="internal">
        <lane id=":11449716195_1_0" index="0" disallow="pedestrian tram rail_urban rail rail_electric rail_fast ship container cable_car subway aircraft wheelchair scooter drone" speed="13.89" length="5.00" shape="962.19,1109.19 962.67,1104.21"/>
    </edge>
    <edge id=":11449716195_c0" function="crossing" crossingEdges="-318747848#5 318747848#5">
        <lane id=":11449716195_c0_0" index="0" allow="pedestrian" speed="2.78" length="6.40" width="4.00" shape="960.84,1106.54 967.21,1107.16" outlineShape="960.93,1104.54 967.50,1105.18 969.01,1109.34 969.44,1104.86 967.45,1104.67 967.40,1105.17 967.02,1109.15 960.65,1108.53 961.03,1104.55 961.08,1104.05 959.09,1103.86 957.46,1105.14 957.17,1107.12 958.61,1108.84 960.60,1109.03 960.65,1108.53"/>
    </edge>
    <edge id=":11449716195_w0" function="walkingarea">
        <lane id=":11449716195_w0_0" index="0" allow="pedestrian" speed="2.78" length="3.46" width="4.00" shape="966.97,1109.65 968.96,1109.84 969.44,1104.86 967.45,1104.67 967.40,1105.17 967.02,1109.15"/>
    </edge>
    <edge id=":11449716195_w1" function="walkingarea">
        <lane id=":11449716195_w1_0" index="0" allow="pedestrian" speed="2.78" length="3.51" width="4.00" shape="960.65,1108.53 961.03,1104.55 961.08,1104.05 959.09,1103.86 957.46,1105.14 957.17,1107.12 958.61,1108.84 960.60,1109.03"/>
    </edge>
    <edge id=":11449716196_w0" function="walkingarea">
        <lane id=":11449716196_w0_0" index="0" allow="pedestrian" speed="2.78" length="3.20" width="6.40" shape="904.53,1103.60 901.33,1103.61 907.73,1103.59 904.53,1103.60"/>
    </edge>
    <edge id=":11449716198_0" function="internal">
        <lane id=":11449716198_0_0" index="0" disallow="pedestrian tram rail_urban rail rail_electric rail_fast ship container cable_car subway aircraft wheelchair scooter drone" speed="13.89" length="4.99" shape="875.07,1058.50 870.08,1058.42"/>
    </edge>
    <edge id=":11449716198_1" function="internal">
        <lane id=":11449716198_1_0" index="0" disallow="pedestrian tram rail_urban rail rail_electric rail_fast ship container cable_car subway aircraft wheelchair scooter drone" speed="13.89" length="4.99" shape="870.13,1055.22 875.12,1055.30"/>
    </edge>
    <edge id=":11449716198_c0" function="crossing" crossingEdges="318747848#4 -318747848#4">
        <lane id=":11449716198_c0_0" index="0" allow="pedestrian" speed="2.78" length="6.40" width="4.00" shape="872.65,1053.66 872.55,1060.06" outlineShape="874.65,1053.59 874.55,1060.19 870.55,1060.03 870.65,1053.63"/>
    </edge>
    <edge id=":11449716198_w0" function="walkingarea">
        <lane id=":11449716198_w0_0" index="0" allow="pedestrian" speed="2.78" length="3.50" width="4.00" shape="870.05,1060.02 870.01,1062.02 871.53,1063.59 873.53,1063.58 875.01,1062.10 875.04,1060.10 874.55,1060.09 870.55,1060.03"/>
    </edge>
    <edge id=":11449716198_w1" function="walkingarea">
        <lane id=":11449716198_w1_0" index="0" allow="pedestrian" speed="2.78" length="3.45" width="4.00" shape="870.65,1053.63 874.65,1053.69 875.14,1053.70 875.17,1051.70 870.19,1051.62 870.16,1053.62"/>
    </edge>
    <edge id=":11449716203_0" function="internal">
        <lane id=":11449716203_0_0" index="0" allow="pedestrian delivery bicycle" speed="5.56" length="5.02" shape="821.03,1081.36 816.14,1080.18"/>
    </edge>
    <edge id=":11449716203_1" function="internal">
        <lane id=":11449716203_1_0" index="0" allow="pedestrian delivery bicycle" speed="5.56" length="5.02" shape="816.89,1077.07 821.78,1078.25"/>
    </edge>
    <edge id=":11449716203_w0" function="walkingarea">
        <lane id=":11449716203_w0_0" index="0" allow="pedestrian" speed="2.78" length="5.04" width="6.40" shape="820.65,1082.91 822.15,1076.69 817.27,1075.51 815.77,1081.74 816.51,1082.08 816.72,1082.35 816.81,1082.66 816.79,1083.04 816.66,1083.47 818.51,1084.23 819.05,1083.34 819.39,1083.07 819.76,1082.90 820.19,1082.85"/>
    </edge>
    <edge id=":11449716209_0" function="internal">
        <lane id=":11449716209_0_0" index="0" disallow="pedestrian tram rail_urban rail rail_electric rail_fast ship container cable_car subway aircraft wheelchair scooter drone" speed="13.89" length="5.00" shape="844.20,1103.45 844.06,1098.45"/>
    </edge>
    <edge id=":11449716209_1" function="internal">
        <lane id=":11449716209_1_0" index="0" disallow="pedestrian tram rail_urban rail rail_electric rail_fast ship container cable_car subway aircraft wheelchair scooter drone" speed="13.89" length="5.00" shape="847.26,1098.36 847.40,1103.36"/>
    </edge>
    <edge id=":11449716209_c0" function="crossing" crossingEdges="-315658884#2 315658884#2">
        <lane id=":11449716209_c0_0" index="0" allow="pedestrian" speed="2.78" length="6.40" width="4.00" shape="848.93,1100.81 842.53,1100.99" outlineShape="849.09,1102.81 842.49,1103.00 842.48,1098.99 848.87,1098.81 848.99,1102.81 849.00,1103.32 851.00,1103.26 850.86,1098.25 848.86,1098.31 848.87,1098.81"/>
    </edge>
    <edge id=":11449716209_w0" function="walkingarea">
        <lane id=":11449716209_w0_0" index="0" allow="pedestrian" speed="2.78" length="3.49" width="4.00" shape="842.46,1098.50 840.46,1098.55 839.00,1100.10 839.06,1102.10 840.60,1103.55 842.60,1103.49 842.59,1102.99 842.48,1098.99"/>
    </edge>
    <edge id=":11449716209_w1" function="walkingarea">
        <lane id=":11449716209_w1_0" index="0" allow="pedestrian" speed="2.78" length="3.47" width="4.00" shape="848.87,1098.81 848.99,1102.81 849.00,1103.32 851.00,1103.26 850.86,1098.25 848.86,1098.31"/>
    </edge>
    <edge id=":11449716210_0" function="internal">
        <lane id=":11449716210_0_0" index="0" allow="pedestrian delivery bicycle" speed="5.56" length="5.02" shape="824.78,1145.46 819.76,1145.76"/>
    </edge>
    <edge id=":11449716210_1" function="internal">
        <lane id=":11449716210_1_0" index="0" allow="pedestrian delivery bicycle" speed="5.56" length="5.02" shape="819.57,1142.57 824.58,1142.27"/>
    </edge>
    <edge id=":11449716210_w0" function="walkingarea">
        <lane id=":11449716210_w0_0" index="0" allow="pedestrian" speed="2.78" length="5.03" width="6.40" shape="824.88,1147.06 824.49,1140.67 823.62,1140.53 823.28,1140.30 823.00,1139.98 822.79,1139.55 822.64,1139.02 820.68,1139.41 820.68,1140.24 820.53,1140.54 820.28,1140.76 819.93,1140.91 819.48,1140.97 819.86,1147.36"/>
    </edge>
    <edge id=":11459942461_0" function="internal">
        <lane id=":11459942461_0_0" index="0" disallow="tram rail_urban rail rail_electric rail_fast ship container cable_car subway aircraft wheelchair scooter drone" speed="27.78" length="9.40" shape="765.95,890.94 765.80,881.54"/>
        <lane id=":11459942461_0_1" index="1" disallow="tram rail_urban rail rail_electric rail_fast ship container cable_car subway aircraft wheelchair scooter drone" speed="27.78" length="9.40" shape="769.15,890.89 769.00,881.49"/>
    </edge>
    <edge id=":11459942461_2" function="internal">
        <lane id=":11459942461_2_0" index="0" allow="pedestrian delivery bicycle" speed="7.72" length="2.73" shape="769.15,890.89 769.71,888.22"/>
    </edge>
    <edge id=":11459942461_8" function="internal">
        <lane id=":11459942461_8_0" index="0" allow="pedestrian delivery bicycle" speed="7.72" length="10.08" shape="769.71,888.22 771.47,886.24 774.43,884.96 778.60,884.39"/>
    </edge>
    <edge id=":11459942461_3" function="internal">
        <lane id=":11459942461_3_0" index="0" allow="pedestrian delivery bicycle" speed="5.15" length="5.13" shape="778.75,887.58 777.33,887.84 776.33,888.46 775.73,889.44 775.55,890.79"/>
    </edge>
    <edge id=":11459942461_4" function="internal">
        <lane id=":11459942461_4_0" index="0" allow="pedestrian delivery bicycle" speed="7.61" length="13.06" shape="778.75,887.58 774.53,887.38 771.49,886.29 769.65,884.33 769.00,881.49"/>
    </edge>
    <edge id=":11459942461_5" function="internal">
        <lane id=":11459942461_5_0" index="0" allow="pedestrian delivery bicycle" speed="5.01" length="5.04" shape="775.40,881.39 775.62,882.76 776.23,883.71 777.22,884.25 778.60,884.39"/>
    </edge>
    <edge id=":11459942461_6" function="internal">
        <lane id=":11459942461_6_0" index="0" disallow="tram rail_urban rail rail_electric rail_fast ship container cable_car subway aircraft wheelchair scooter drone" speed="27.78" length="9.40" shape="775.40,881.39 775.55,890.79"/>
        <lane id=":11459942461_6_1" index="1" disallow="tram rail_urban rail rail_electric rail_fast ship container cable_car subway aircraft wheelchair scooter drone" speed="27.78" length="9.40" shape="772.20,881.44 772.35,890.84"/>
    </edge>
    <edge id=":11459942461_w0" function="walkingarea">
        <lane id=":11459942461_w0_0" index="0" allow="pedestrian" speed="2.78" length="9.73" width="12.80" shape="764.35,890.96 777.15,890.76 777.33,889.92 777.56,889.62 777.89,889.39 778.31,889.25 778.83,889.18 778.52,882.79 777.69,882.66 777.39,882.47 777.18,882.18 777.05,881.82 777.00,881.36 764.20,881.57"/>
    </edge>
    <edge id=":11459942462_w0" function="walkingarea">
        <lane id=":11459942462_w0_0" index="0" allow="pedestrian" speed="2.78" length="4.32" width="6.40" shape="832.95,887.54 834.18,885.96 829.96,880.30 830.27,886.69 831.34,886.69 831.72,886.77 832.08,886.92 832.47,887.17"/>
    </edge>
    <edge id=":11459942464_0" function="internal">
        <lane id=":11459942464_0_0" index="0" disallow="tram rail_urban rail rail_electric rail_fast ship container cable_car subway aircraft wheelchair scooter drone" speed="27.78" length="5.12" shape="838.70,899.56 843.06,897.01"/>
        <lane id=":11459942464_0_1" index="1" disallow="tram rail_urban rail rail_electric rail_fast ship container cable_car subway aircraft wheelchair scooter drone" speed="27.78" length="5.12" shape="840.28,902.34 844.70,899.76"/>
        <lane id=":11459942464_0_2" index="2" disallow="tram rail_urban rail rail_electric rail_fast ship container cable_car subway aircraft wheelchair scooter drone" speed="27.78" length="5.12" shape="841.85,905.13 846.34,902.51"/>
    </edge>
    <edge id=":11459942464_w0" function="walkingarea">
        <lane id=":11459942464_w0_0" index="0" allow="pedestrian" speed="2.78" length="4.40" width="3.20" shape="847.16,903.88 842.24,895.64 841.45,895.91 841.12,895.87 840.82,895.71 840.56,895.43 840.34,895.03 838.51,895.84 838.76,896.80 838.71,897.22 838.56,897.58 838.29,897.90 837.91,898.17 842.64,906.52"/>
    </edge>
    <edge id=":11459943051_w0" function="walkingarea">
        <lane id=":11459943051_w0_0" index="0" allow="pedestrian" speed="2.78" length="0.21" width="2.00" shape="838.47,873.16 839.27,871.33 838.10,872.95 838.23,873.04 838.28,873.07 838.32,873.09 838.38,873.12"/>
    </edge>
    <edge id=":11459943053_0" function="internal">
        <lane id=":11459943053_0_0" index="0" disallow="tram rail_urban rail rail_electric rail_fast ship container cable_car subway aircraft wheelchair scooter drone" speed="27.78" length="5.16" shape="860.30,886.72 864.73,884.08"/>
        <lane id=":11459943053_0_1" index="1" disallow="tram rail_urban rail rail_electric rail_fast ship container cable_car subway aircraft wheelchair scooter drone" speed="27.78" length="5.16" shape="861.94,889.47 866.37,886.83"/>
        <lane id=":11459943053_0_2" index="2" disallow="tram rail_urban rail rail_electric rail_fast ship container cable_car subway aircraft wheelchair scooter drone" speed="27.78" length="5.16" shape="863.58,892.22 868.01,889.58"/>
    </edge>
    <edge id=":11459943053_w0" function="walkingarea">
        <lane id=":11459943053_w0_0" index="0" allow="pedestrian" speed="2.78" length="4.57" width="3.20" shape="868.83,890.95 863.91,882.71 862.99,882.98 862.48,882.93 861.94,882.77 861.37,882.49 860.77,882.08 859.57,883.68 860.09,884.27 860.15,884.55 860.06,884.82 859.84,885.09 859.48,885.35 864.40,893.59"/>
    </edge>
    <edge id=":11459943054_0" function="internal">
        <lane id=":11459943054_0_0" index="0" disallow="tram rail_urban rail rail_electric rail_fast ship container cable_car subway aircraft wheelchair scooter drone" speed="27.78" length="5.11" shape="879.55,873.60 883.62,870.52"/>
        <lane id=":11459943054_0_1" index="1" disallow="tram rail_urban rail rail_electric rail_fast ship container cable_car subway aircraft wheelchair scooter drone" speed="27.78" length="5.11" shape="881.48,876.16 885.55,873.08"/>
        <lane id=":11459943054_0_2" index="2" disallow="tram rail_urban rail rail_electric rail_fast ship container cable_car subway aircraft wheelchair scooter drone" speed="27.78" length="5.11" shape="883.40,878.71 887.48,875.63"/>
    </edge>
    <edge id=":11459943054_w0" function="walkingarea">
        <lane id=":11459943054_w0_0" index="0" allow="pedestrian" speed="2.78" length="4.52" width="3.20" shape="888.45,876.91 882.66,869.25 881.80,869.61 881.32,869.62 880.80,869.50 880.26,869.27 879.68,868.92 878.55,870.57 879.10,871.14 879.17,871.43 879.11,871.73 878.91,872.03 878.58,872.32 884.37,879.99"/>
    </edge>
    <edge id=":11459943055_w0" function="walkingarea">
        <lane id=":11459943055_w0_0" index="0" allow="pedestrian" speed="2.78" length="2.32" width="2.00" shape="872.13,866.13 873.26,864.49 872.52,863.98 872.25,863.81 871.98,863.65 871.64,863.47 871.18,863.22 870.24,864.99 870.96,865.38 871.21,865.52 871.45,865.67 871.74,865.87"/>
    </edge>
    <edge id=":11459943059_0" function="internal">
        <lane id=":11459943059_0_0" index="0" disallow="pedestrian tram rail_urban rail rail_electric rail_fast ship container cable_car subway aircraft wheelchair scooter drone" speed="13.89" length="5.00" shape="863.78,838.53 859.07,840.20"/>
    </edge>
    <edge id=":11459943059_1" function="internal">
        <lane id=":11459943059_1_0" index="0" disallow="pedestrian tram rail_urban rail rail_electric rail_fast ship container cable_car subway aircraft wheelchair scooter drone" speed="13.89" length="5.00" shape="858.00,837.18 862.72,835.51"/>
    </edge>
    <edge id=":11459943059_c0" function="crossing" crossingEdges="-351672100#1 351672100#1">
        <lane id=":11459943059_c0_0" index="0" allow="pedestrian" speed="2.78" length="6.40" width="4.00" shape="859.83,834.84 861.96,840.87" outlineShape="861.68,834.08 863.88,840.30 860.07,841.54 857.94,835.50 861.71,834.17 862.18,834.00 861.52,832.12 856.80,833.78 857.47,835.67 857.94,835.50"/>
    </edge>
    <edge id=":11459943059_w0" function="walkingarea">
        <lane id=":11459943059_w0_0" index="0" allow="pedestrian" speed="2.78" length="3.50" width="4.00" shape="859.60,841.70 860.27,843.59 862.15,844.51 864.05,843.88 864.98,841.92 864.32,840.04 863.85,840.20 860.07,841.54"/>
    </edge>
    <edge id=":11459943059_w1" function="walkingarea">
        <lane id=":11459943059_w1_0" index="0" allow="pedestrian" speed="2.78" length="3.46" width="4.00" shape="857.94,835.50 861.71,834.17 862.18,834.00 861.52,832.12 856.80,833.78 857.47,835.67"/>
    </edge>
    <edge id=":11459943069_0" function="internal">
        <lane id=":11459943069_0_0" index="0" disallow="pedestrian tram rail_urban rail rail_electric rail_fast ship container cable_car subway aircraft wheelchair scooter drone" speed="13.89" length="4.98" shape="894.86,818.62 891.38,822.18"/>
    </edge>
    <edge id=":11459943069_1" function="internal">
        <lane id=":11459943069_1_0" index="0" disallow="pedestrian tram rail_urban rail rail_electric rail_fast ship container cable_car subway aircraft wheelchair scooter drone" speed="13.89" length="4.95" shape="889.06,819.97 892.52,816.44"/>
    </edge>
    <edge id=":11459943069_c0" function="crossing" crossingEdges="-351672100#0 351672100#0">
        <lane id=":11459943069_c0_0" index="0" allow="pedestrian" speed="2.78" length="6.40" width="4.00" shape="889.66,817.15 894.34,821.52" outlineShape="891.03,815.69 895.71,820.06 892.98,822.99 888.30,818.62 891.03,815.69 891.35,815.35 889.89,813.98 886.49,817.45 887.86,818.91 888.30,818.62"/>
    </edge>
    <edge id=":11459943069_w0" function="walkingarea">
        <lane id=":11459943069_w0_0" index="0" allow="pedestrian" speed="2.78" length="3.12" width="4.00" shape="892.59,823.25 893.96,824.71 895.36,823.95 896.86,822.62 897.49,821.08 896.03,819.72 895.71,820.06 892.98,822.99"/>
    </edge>
    <edge id=":11459943069_w1" function="walkingarea">
        <lane id=":11459943069_w1_0" index="0" allow="pedestrian" speed="2.78" length="3.43" width="4.00" shape="888.30,818.62 891.03,815.69 891.35,815.35 889.89,813.98 886.49,817.45 887.86,818.91"/>
    </edge>
    <edge id=":11459943070_w0" function="walkingarea">
        <lane id=":11459943070_w0_0" index="0" allow="pedestrian" speed="2.78" length="0.30" width="2.00" shape="900.08,829.12 901.56,827.77 901.36,827.55 899.88,828.89"/>
    </edge>
    <edge id=":11459943071_0" function="internal">
        <lane id=":11459943071_0_0" index="0" disallow="tram rail_urban rail rail_electric rail_fast ship container cable_car subway aircraft wheelchair scooter drone" speed="27.78" length="5.01" shape="914.42,847.25 918.42,844.23"/>
        <lane id=":11459943071_0_1" index="1" disallow="tram rail_urban rail rail_electric rail_fast ship container cable_car subway aircraft wheelchair scooter drone" speed="27.78" length="5.01" shape="916.35,849.80 920.35,846.78"/>