<?xml version="1.0" encoding="UTF-8"?>

<!-- generated on 2026-04-15 03:10:32.758725 by Eclipse SUMO randomTrips.py v1.26.0
<configuration>
    <net-file value="/Users/junlee/Desktop/2026-1/js/result/report_top12_seed4_2h/sumo_nets/cw_6213/network.net.xml"/>
    <output-trip-file value="/Users/junlee/Desktop/2026-1/js/result/report_top12_seed4_2h/sumo_nets/cw_6213/routes_seed45.trips.xml"/>
    <route-file value="/Users/junlee/Desktop/2026-1/js/result/report_top12_seed4_2h/sumo_nets/cw_6213/routes_seed45.rou.xml"/>
    <vehicle-class value="passenger"/>
    <seed value="45"/>
    <end value="7200.0"/>
    <period value="1.6313457769297386"/>
</configuration>
-->

<!-- generated on 2026-04-15T03:10:32.683662+09:00 by Eclipse SUMO duarouter 1.26.0
<duarouterConfiguration xmlns:xsi="http://www.w3.org/2001/XMLSchema-instance" xsi:noNamespaceSchemaLocation="http://sumo.dlr.de/xsd/duarouterConfiguration.xsd">

    <input>
        <net-file value="/Users/junlee/Desktop/2026-1/js/result/report_top12_seed4_2h/sumo_nets/cw_6213/network.net.xml"/>
        <route-files value="/Users/junlee/Desktop/2026-1/js/result/report_top12_seed4_2h/sumo_nets/cw_6213/routes_seed45.trips.xml"/>
    </input>

    <output>
        <output-file value="/Users/junlee/Desktop/2026-1/js/result/report_top12_seed4_2h/sumo_nets/cw_6213/routes_seed45.rou.xml"/>
        <alternatives-output value="NUL"/>
    </output>

    <time>
        <begin value="0.0"/>
        <end value="7200.0"/>
    </time>

    <report>
        <no-warnings value="true"/>
        <ignore-errors value="true"/>
        <no-step-log value="true"/>
    </report>

</duarouterConfiguration>
-->

<routes xmlns:xsi="http://www.w3.org/2001/XMLSchema-instance" xsi:noNamespaceSchemaLocation="http://sumo.dlr.de/xsd/routes_file.xsd">
    <vType id="passenger" vClass="passenger"/>
    <vehicle id="0" type="passenger" depart="0.00">
        <route edges="-315658897#2 315658896#2 -318747848#7 -318747848#6 -318747848#5 -318747848#4 -318747848#3 -318747848#2 379943755#1 379943753#0 379943753#1 1339655667#0"/>
    </vehicle>
    <vehicle id="1" type="passenger" depart="1.63">
        <route edges="-315658897#1 -315658897#0 619147739#5 315658896#1 315658896#2 -318747848#7 -318747848#6 -318747848#5 -318747848#4 -318747848#3 -315658884#4 -315658884#3 -315658884#2 -315658884#1"/>
    </vehicle>
    <vehicle id="2" type="passenger" depart="3.26">
        <route edges="-770860549 -770860548#1 770860565 78628775#2 78628770#1 318747848#2 -315658884#4 -315658884#3 -315658884#2 -315658884#1 619147739#5"/>
    </vehicle>
    <vehicle id="3" type="passenger" depart="4.89">
        <route edges="-315658897#1 -315658897#0 315658884#1 315658884#2 315658884#3 315658884#4 -318747848#2 379943755#1 379943753#0 379943753#1 1339697076#0 1339697076#1 1339697075#1 1339697075#2 1339697075#3 1339697075#4 1339697075#5 1339697075#6"/>
    </vehicle>
    <vehicle id="4" type="passenger" depart="6.53">
        <route edges="-318747848#2 379943755#1 379943753#0 379943753#1 712288152#0 712288152#1 712288152#2 619147739#3 619147739#4 619147739#5 315658896#1 315658896#2 -318747848#7 -318747848#6 -318747848#5 -318747848#4 -318747848#3"/>
    </vehicle>
    <vehicle id="5" type="passenger" depart="8.16">
        <route edges="619147739#4 315658884#1 315658884#2 315658884#3 315658884#4 -318747848#2 379943755#1 379943753#0"/>
    </vehicle>
    <vehicle id="6" type="passenger" depart="9.79">
        <route edges="770860549 821457682#1 333557072#3 -770860548#2 -770860548#1 770860565 78628775#2 78628770#1 379943755#1 379943753#0 379943753#1 712288152#0 712288152#1 712288152#2 619147739#3 619147739#4"/>
    </vehicle>
    <vehicle id="7" type="passenger" depart="11.42">
        <route edges="773060732#3 777881144#0"/>
    </vehicle>
    <vehicle id="8" type="passenger" depart="13.05">
        <route edges="-315658884#2 -315658884#1 315658897#0 315658897#1"/>
    </vehicle>
    <vehicle id="9" type="passenger" depart="14.68">
        <route edges="-315658897#2 315658896#2 -318747848#7 -318747848#6 -318747848#5 -318747848#4 -318747848#3 -318747848#2 379943755#1 379943753#0 379943753#1 1339697076#0 1339697076#1 1339697075#1 1339697075#2 1339697075#3 1339697075#4"/>
    </vehicle>
    <vehicle id="10" type="passenger" depart="16.31">
        <route edges="-770860548#1"/>
    </vehicle>
    <vehicle id="11" type="passenger" depart="17.94">
        <route edges="-315658896#2 -315658897#1 -315658897#0 315658884#1 315658884#2 315658884#3 315658884#4 -318747848#2 379943755#1 379943753#0 379943753#1 1339655667#0 1339655667#1 -37403486#2 -37403486#1 -384030401#1 778973690"/>
    </vehicle>
    <vehicle id="12" type="passenger" depart="19.58">
        <route edges="333557072#2 333557072#3 -770860548#2 -770860548#1 770860565 78628775#2 78628770#1 379943755#1 379943753#0 379943753#1 1339697076#0 1339697076#1 1339697075#1"/>
    </vehicle>
    <vehicle id="13" type="passenger" depart="21.21">
        <route edges="379943755#1 379943753#0 379943753#1 712288152#0 712288152#1 712288152#2 619147739#3 619147739#4 315658897#0"/>
    </vehicle>
    <vehicle id="14" type="passenger" depart="22.84">
        <route edges="78628775#1 -770860565 770860548#1 770860548#2"/>
    </vehicle>
    <vehicle id="15" type="passenger" depart="24.47">
        <route edges="-315658897#0 315658884#1 315658884#2 315658884#3 315658884#4 -318747848#2 379943755#1 379943753#0 379943753#1 1339655667#0 1339655667#1 -37403486#2 -37403486#1 -351672100#4 -351672100#2 -351672100#1 -351672100#0"/>
    </vehicle>
    <vehicle id="16" type="passenger" depart="26.10">
        <route edges="-315658897#2 315658896#2 -318747848#7 -318747848#6 -318747848#5 -318747848#4 -318747848#3 -318747848#2 379943755#1 379943753#0 379943753#1 1339655667#0 1339655667#1 428544127"/>
    </vehicle>
    <vehicle id="17" type="passenger" depart="27.73">
        <route edges="619147739#5 315658896#1 -315658897#1 -315658897#0 315658884#1 315658884#2 315658884#3"/>
    </vehicle>
    <vehicle id="18" type="passenger" depart="29.36">
        <route edges="770860548#1 770860549 821457682#1 333557072#3 -770860548#2 -770860548#1 770860565 78628775#2 78628770#1 379943755#1 379943753#0 379943753#1 1339697076#0 1339697076#1 1339697075#1 1339697075#2 1339697075#3 1339697075#4"/>
    </vehicle>
    <vehicle id="19" type="passenger" depart="31.00">
        <route edges="712288152#2 619147739#3 619147739#4 315658884#1 315658884#2 315658884#3 315658884#4 -318747848#2 379943755#1 379943753#0 379943753#1 1339697076#0 1339697076#1 1339697075#1 1339697075#2 1339697075#3"/>
    </vehicle>
    <vehicle id="20" type="passenger" depart="32.63">
        <route edges="-651817398#2 -651817398#1 -651817398#0 619147739#1 619147739#2 -712288152#2 -712288152#1 -712288152#0 1339697076#0 1339697076#1 1339697075#1"/>
    </vehicle>
    <vehicle id="21" type="passenger" depart="34.26">
        <route edges="78628770#1 379943755#1 379943753#0 379943753#1 1339697076#0 1339697076#1 1339697075#1 1339697075#2 1339697075#3 1339697075#4 1339697075#5"/>
    </vehicle>
    <vehicle id="22" type="passenger" depart="35.89">
        <route edges="333557072#3 -770860548#2 -770860548#1 770860565 78628775#2 78628770#1 318747848#2 318747848#3 318747848#4 318747848#5 318747848#6 318747848#7 -315658896#2"/>
    </vehicle>
    <vehicle id="23" type="passenger" depart="37.52">
        <route edges="-651817398#1 -651817398#0 619147739#1 619147739#2 619147739#3 619147739#4 315658897#0 315658897#1 -315658896#1"/>
    </vehicle>
    <vehicle id="24" type="passenger" depart="39.15">
        <route edges="351672100#4 37403486#1 37403486#2 428544127 1339697075#1 1339697075#2"/>
    </vehicle>
    <vehicle id="25" type="passenger" depart="40.78">
        <route edges="379943753#1 712288152#0"/>
    </vehicle>
    <vehicle id="26" type="passenger" depart="42.41">
        <route edges="770860548#0 770860565 78628775#2 78628770#1 379943755#1 379943753#0 379943753#1 1339697076#0 1339697076#1 1339697075#1 1339697075#2 1339697075#3"/>
    </vehicle>
    <vehicle id="27" type="passenger" depart="44.05">
        <route edges="821457682#1 333557072#3 -770860548#2 -770860548#1 770860565 78628775#2 78628770#1 318747848#2 -315658884#4 -315658884#3 -315658884#2 -315658884#1 619147739#5 315658896#1"/>
    </vehicle>
    <vehicle id="28" type="passenger" depart="45.68">
        <route edges="-315658897#0 315658884#1 315658884#2 315658884#3 315658884#4 -318747848#2 379943755#1 379943753#0 379943753#1 1339697076#0 1339697076#1 1339697075#1"/>
    </vehicle>
    <vehicle id="29" type="passenger" depart="47.31">
        <route edges="318747848#7 -315658896#2 -315658897#1 -315658897#0 315658884#1 315658884#2 315658884#3 315658884#4 -318747848#2 379943755#1 379943753#0 379943753#1 1339697076#0 1339697076#1 1339697075#1 1339697075#2 1339697075#3 1339697075#4"/>
    </vehicle>
    <vehicle id="30" type="passenger" depart="48.94">
        <route edges="-651817398#1 -651817398#0 619147739#1 619147739#2 -712288152#2 -712288152#1 -712288152#0 1339697076#0 1339697076#1 1339697075#1 1339697075#2 1339697075#3 1339697075#4 1339697075#5 1339697075#6"/>
    </vehicle>
    <vehicle id="31" type="passenger" depart="50.57">
        <route edges="619147739#4 315658884#1 315658884#2 315658884#3 315658884#4 -318747848#2 379943755#1"/>
    </vehicle>
    <vehicle id="32" type="passenger" depart="52.20">
        <route edges="-318747848#3 -318747848#2 379943755#1 379943753#0"/>
    </vehicle>
    <vehicle id="33" type="passenger" depart="53.83">
        <route edges="770860549 821457682#1 333557072#3 -770860548#2 -770860548#1 770860565 78628775#2 78628770#1 379943755#1 379943753#0 379943753#1"/>
    </vehicle>
    <vehicle id="34" type="passenger" depart="55.47">
        <route edges="333557072#0 333557072#1 333557072#2 333557072#3 -770860548#2 -770860548#1 770860565 78628775#2 78628770#1 379943755#1 379943753#0 379943753#1 1339655667#0 1339655667#1"/>
    </vehicle>
    <vehicle id="35" type="passenger" depart="57.10">
        <route edges="333557072#2 333557072#3 -770860548#2 -770860548#1 770860565 78628775#2 78628770#1 379943755#1 379943753#0 379943753#1 712288152#0 712288152#1 712288152#2 619147739#3 619147739#4 315658884#1 315658884#2 315658884#3 315658884#4 -318747848#2 777881144#1 777881145"/>
    </vehicle>
    <vehicle id="36" type="passenger" depart="58.73">
        <route edges="-318747848#6 -318747848#5 -318747848#4 -318747848#3 -315658884#4 -315658884#3 -315658884#2 -315658884#1 619147739#5 315658896#1 -315658897#1 -315658897#0 315658884#1 315658884#2 315658884#3 315658884#4 318747848#3 318747848#4"/>
    </vehicle>
    <vehicle id="37" type="passenger" depart="60.36">
        <route edges="770860548#0 770860565 78628775#2 78628770#1 318747848#2 318747848#3 318747848#4 318747848#5 318747848#6 318747848#7 -315658896#2 -315658896#1"/>
    </vehicle>
    <vehicle id="38" type="passenger" depart="61.99">
        <route edges="770860549 821457682#1 333557072#3 -770860548#2 -770860548#1 770860565 78628775#2 78628770#1 379943755#1 379943753#0 379943753#1 712288152#0"/>
    </vehicle>
    <vehicle id="39" type="passenger" depart="63.62">
        <route edges="773060732#2 773060732#3 777881144#0 318747848#2 -315658884#4 -315658884#3 -315658884#2 -315658884#1 315658897#0 315658897#1 315658896#2 -318747848#7"/>
    </vehicle>
    <vehicle id="40" type="passenger" depart="65.25">
        <route edges="-318747848#3 -318747848#2 777881144#1 777881145"/>
    </vehicle>
    <vehicle id="41" type="passenger" depart="66.89">
        <route edges="379943753#1 712288152#0 712288152#1 712288152#2 619147739#3 619147739#4 315658884#1 315658884#2 315658884#3 315658884#4"/>
    </vehicle>
    <vehicle id="42" type="passenger" depart="68.52">
        <route edges="315658884#4 318747848#3 318747848#4 318747848#5 318747848#6 318747848#7 -315658896#2 -315658897#1 -315658897#0 619147739#5 315658896#1 315658896#2 -318747848#7 -318747848#6 -318747848#5"/>
    </vehicle>
    <vehicle id="43" type="passenger" depart="70.15">
        <route edges="773060732#2 773060732#3 777881144#0 318747848#2 -315658884#4 -315658884#3 -315658884#2 -315658884#1 315658897#0 315658897#1 315658897#2"/>
    </vehicle>
    <vehicle id="44" type="passenger" depart="71.78">
        <route edges="-318747848#5 -318747848#4 -318747848#3 -315658884#4 -315658884#3 -315658884#2 -315658884#1 619147739#5 955312947"/>
    </vehicle>
    <vehicle id="45" type="passenger" depart="73.41">
        <route edges="1339655667#0 1339655667#1 428544127 1339697075#1 1339697075#2"/>
    </vehicle>
    <vehicle id="46" type="passenger" depart="75.04">
        <route edges="318747848#6 318747848#7 -315658896#2 -315658897#1 -315658897#0 619147739#5 315658896#1 315658896#2 -318747848#7 -318747848#6 -318747848#5 -318747848#4 -318747848#3 -315658884#4"/>
    </vehicle>
    <vehicle id="47" type="passenger" depart="76.67">
        <route edges="777881144#0 318747848#2 -315658884#4 -315658884#3 -315658884#2 -315658884#1 315658897#0 315658897#1 315658896#2 -318747848#7 -318747848#6 -318747848#5 -318747848#4 -318747848#3 -318747848#2 379943755#1 379943753#0 379943753#1 712288152#0"/>
    </vehicle>
    <vehicle id="48" type="passenger" depart="78.30">
        <route edges="384030401#1 37403486#1 37403486#2 428544127 1339697075#1 1339697075#2 1339697075#3"/>
    </vehicle>
    <vehicle id="49" type="passenger" depart="79.94">
        <route edges="821457682#0 -770860549 -770860548#1 770860565 78628775#2 78628770#1 379943755#1 379943753#0 379943753#1 712288152#0 712288152#1 712288152#2 619147739#3 619147739#4 315658884#1 315658884#2 315658884#3 315658884#4 -318747848#2 777881144#1"/>
    </vehicle>
    <vehicle id="50" type="passenger" depart="81.57">
        <route edges="770860548#1 770860549 821457682#1 333557072#3 -770860548#2 -770860548#1 770860565 78628775#2 78628770#1 379943755#1 379943753#0 379943753#1 1339655667#0 1339655667#1 428544127"/>
    </vehicle>
    <vehicle id="51" type="passenger" depart="83.20">
        <route edges="821457682#0 -770860549 -770860548#1 770860565 78628775#2 78628770#1 379943755#1 379943753#0 379943753#1 1339655667#0 1339655667#1 -37403486#2 -37403486#1 -351672100#4 -351672100#2 -351672100#1"/>
    </vehicle>
    <vehicle id="52" type="passenger" depart="84.83">
        <route edges="-318747848#2 379943755#1 379943753#0 379943753#1 712288152#0 712288152#1 712288152#2 619147739#3 619147739#4 619147739#5 315658896#1 315658896#2 -318747848#7 -318747848#6"/>
    </vehicle>
    <vehicle id="53" type="passenger" depart="86.46">
        <route edges="-315658897#1 -315658897#0 315658884#1 315658884#2 315658884#3 315658884#4 -318747848#2 379943755#1 379943753#0 379943753#1 1339655667#0 1339655667#1 -37403486#2 -37403486#1 -351672100#4 -351672100#2"/>
    </vehicle>
    <vehicle id="54" type="passenger" depart="88.09">
        <route edges="-315658884#3 -315658884#2 -315658884#1 619147739#5 315658896#1 -315658897#1 -315658897#0 315658884#1 315658884#2 315658884#3 315658884#4 318747848#3 318747848#4"/>
    </vehicle>
    <vehicle id="55" type="passenger" depart="89.72">
        <route edges="-315658884#3 -315658884#2 -315658884#1 315658897#0 315658897#1 315658896#2 -318747848#7 -318747848#6 -318747848#5 -318747848#4 -318747848#3 -315658884#4"/>
    </vehicle>
    <vehicle id="56" type="passenger" depart="91.36">
        <route edges="-651817398#3 -651817398#2 -651817398#1 -651817398#0 619147739#1 619147739#2 619147739#3 619147739#4 315658884#1 315658884#2 315658884#3"/>
    </vehicle>
    <vehicle id="57" type="passenger" depart="92.99">
        <route edges="351672100#2 351672100#4 37403486#1 37403486#2 428544127 1339697075#1"/>
    </vehicle>
    <vehicle id="58" type="passenger" depart="94.62">
        <route edges="315658884#3 315658884#4 -318747848#2 379943755#1 379943753#0 379943753#1 712288152#0 712288152#1 712288152#2 619147739#3 619147739#4 315658897#0"/>
    </vehicle>
    <vehicle id="59" type="passenger" depart="96.25">
        <route edges="712288152#2 619147739#3 619147739#4 315658884#1 315658884#2 315658884#3 315658884#4 -318747848#2 379943755#1 379943753#0"/>
    </vehicle>
    <vehicle id="60" type="passenger" depart="97.88">
        <route edges="78628770#1 379943755#1 379943753#0 379943753#1 1339655667#0 1339655667#1 -37403486#2 -37403486#1 -384030401#1"/>
    </vehicle>
    <vehicle id="61" type="passenger" depart="99.51">
        <route edges="379943753#1 712288152#0 712288152#1 712288152#2 619147739#3 619147739#4 619147739#5 619147739#6"/>
    </vehicle>
    <vehicle id="62" type="passenger" depart="101.14">
        <route edges="770860565 78628775#2 78628770#1 379943755#1 379943753#0 379943753#1 1339655667#0 1339655667#1 -37403486#2 -37403486#1 -351672100#4 -351672100#2 -351672100#1 -351672100#0"/>
    </vehicle>
    <vehicle id="63" type="passenger" depart="102.77">
        <route edges="351672100#2 351672100#4 37403486#1 37403486#2 428544127 1339697075#1 1339697075#2 1339697075#3 1339697075#4 1339697075#5 1339697075#6 1339697074"/>
    </vehicle>
    <vehicle id="64" type="passenger" depart="104.41">
        <route edges="-770860549 -770860548#1 770860565 78628775#2 78628770#1 379943755#1 379943753#0 379943753#1 1339655667#0 1339655667#1 -37403486#2 -37403486#1 -351672100#4 384030395"/>
    </vehicle>
    <vehicle id="65" type="passenger" depart="106.04">
        <route edges="777881144#0 777881144#1"/>
    </vehicle>
    <vehicle id="66" type="passenger" depart="107.67">
        <route edges="712288152#2 619147739#3 619147739#4 315658897#0 315658897#1"/>
    </vehicle>
    <vehicle id="67" type="passenger" depart="109.30">
        <route edges="318747848#3 318747848#4 318747848#5 318747848#6 318747848#7 -315658896#2 -315658897#1 -315658897#0 619147739#5 315658896#1 315658896#2 -318747848#7 -318747848#6 -318747848#5 -318747848#4 -318747848#3 -315658884#4 -315658884#3 -315658884#2"/>
    </vehicle>
    <vehicle id="68" type="passenger" depart="110.93">
        <route edges="770860565 78628775#2 78628770#1 318747848#2 318747848#3 318747848#4 318747848#5"/>
    </vehicle>
    <vehicle id="69" type="passenger" depart="112.56">
        <route edges="315658884#2 315658884#3 315658884#4 318747848#3 318747848#4 318747848#5"/>
    </vehicle>
    <vehicle id="70" type="passenger" depart="114.19">
        <route edges="379943753#1 1339697076#0 1339697076#1"/>
    </vehicle>
    <vehicle id="71" type="passenger" depart="115.83">
        <route edges="777881144#0 318747848#2 -315658884#4 -315658884#3 -315658884#2 -315658884#1 619147739#5"/>
    </vehicle>
    <vehicle id="72" type="passenger" depart="117.46">
        <route edges="78628770#1 379943755#1 379943753#0 379943753#1 1339655667#0 1339655667#1 -37403486#2 -37403486#1 -384030401#1 778973690"/>
    </vehicle>
    <vehicle id="73" type="passenger" depart="119.09">
        <route edges="1339697075#6"/>
    </vehicle>
    <vehicle id="74" type="passenger" depart="120.72">
        <route edges="78628775#2 78628770#1 318747848#2 -315658884#4 -315658884#3"/>
    </vehicle>
    <vehicle id="75" type="passenger" depart="122.35">
        <route edges="773060732#4 379943753#0 379943753#1 712288152#0 712288152#1 712288152#2 619147739#3 619147739#4 619147739#5 619147739#6"/>
    </vehicle>
    <vehicle id="76" type="passenger" depart="123.98">
        <route edges="315658897#1 315658896#2"/>
    </vehicle>
    <vehicle id="77" type="passenger" depart="125.61">
        <route edges="619147739#1 619147739#2 -712288152#2 -712288152#1 -712288152#0 1339655667#0 1339655667#1 -37403486#2 -37403486#1 -351672100#4 384030395"/>
    </vehicle>
    <vehicle id="78" type="passenger" depart="127.24">
        <route edges="-778973690 384030401#1 37403486#1"/>
    </vehicle>
    <vehicle id="79" type="passenger" depart="128.88">
        <route edges="315658897#0 315658897#1 315658896#2 -318747848#7 -318747848#6 -318747848#5 -318747848#4"/>
    </vehicle>
    <vehicle id="80" type="passenger" depart="130.51">
        <route edges="770860548#0 770860565 78628775#2 78628770#1 318747848#2 318747848#3 318747848#4 318747848#5"/>
    </vehicle>
    <vehicle id="81" type="passenger" depart="132.14">
        <route edges="78628775#2 78628770#1 318747848#2 318747848#3 318747848#4 318747848#5 318747848#6 318747848#7 -315658896#2 -315658897#1 -315658897#0"/>
    </vehicle>
    <vehicle id="82" type="passenger" depart="133.77">
        <route edges="-315658896#2 -315658897#1 -315658897#0 315658884#1 315658884#2 315658884#3 315658884#4 -318747848#2 379943755#1 379943753#0 379943753#1 1339697076#0 1339697076#1 1339697075#1 1339697075#2 1339697075#3 1339697075#4"/>
    </vehicle>
    <vehicle id="83" type="passenger" depart="135.40">
        <route edges="-318747848#7 -318747848#6 -318747848#5 -318747848#4 -318747848#3 -318747848#2 379943755#1 379943753#0 379943753#1 1339655667#0 1339655667#1 -37403486#2 -37403486#1 -351672100#4 -351672100#2 -351672100#1 -351672100#0"/>
    </vehicle>
    <vehicle id="84" type="passenger" depart="137.03">
        <route edges="-315658897#2 315658896#2 -318747848#7 -318747848#6 -318747848#5 -318747848#4 -318747848#3 -318747848#2 379943755#1 379943753#0 379943753#1 1339655667#0 1339655667#1 -37403486#2"/>
    </vehicle>
    <vehicle id="85" type="passenger" depart="138.66">
        <route edges="770860548#1 770860549 821457682#1 333557072#3 -770860548#2 -770860548#1 770860565 78628775#2 78628770#1 318747848#2 318747848#3 318747848#4 318747848#5 318747848#6 318747848#7"/>
    </vehicle>
    <vehicle id="86" type="passenger" depart="140.30">
        <route edges="315658884#4 -318747848#2 379943755#1 379943753#0 379943753#1 1339697076#0 1339697076#1 1339697075#1 1339697075#2 1339697075#3 1339697075#4"/>
    </vehicle>
    <vehicle id="87" type="passenger" depart="141.93">
        <route edges="318747848#2 -315658884#4 -315658884#3 -315658884#2 -315658884#1 315658897#0 315658897#1"/>
    </vehicle>
    <vehicle id="88" type="passenger" depart="143.56">
        <route edges="821457682#1 333557072#3 -770860548#2 -770860548#1 770860565 78628775#2 78628770#1 318747848#2"/>
    </vehicle>
    <vehicle id="89" type="passenger" depart="145.19">
        <route edges="379943753#0 379943753#1 1339697076#0 1339697076#1 1339697075#1 1339697075#2 1339697075#3 1339697075#4 1339697075#5 1339697075#6 1339697074"/>
    </vehicle>
    <vehicle id="90" type="passenger" depart="146.82">
        <route edges="773060732#1 773060732#2 773060732#3 773060732#4 379943753#0 379943753#1 712288152#0 712288152#1 712288152#2 619147739#3 619147739#4"/>
    </vehicle>
    <vehicle id="91" type="passenger" depart="148.45">
        <route edges="318747848#5 318747848#6 318747848#7 -315658896#2 -315658897#1 -315658897#0 619147739#5 315658896#1 315658896#2 -318747848#7"/>
    </vehicle>
    <vehicle id="92" type="passenger" depart="150.08">
        <route edges="-315658897#2 315658896#2 -318747848#7 -318747848#6 -318747848#5 -318747848#4 -318747848#3 -318747848#2 379943755#1 379943753#0 379943753#1 712288152#0 712288152#1 712288152#2"/>
    </vehicle>
    <vehicle id="93" type="passenger" depart="151.72">
        <route edges="318747848#5 318747848#6 318747848#7 -315658896#2 -315658897#1 -315658897#0 315658884#1 315658884#2 315658884#3 315658884#4 -318747848#2 379943755#1 379943753#0 379943753#1"/>
    </vehicle>
    <vehicle id="94" type="passenger" depart="153.35">
        <route edges="619147739#4 619147739#5 315658896#1"/>
    </vehicle>
    <vehicle id="95" type="passenger" depart="154.98">
        <route edges="-651817398#2 -651817398#1 -651817398#0 619147739#1 619147739#2 619147739#3 619147739#4 315658884#1 315658884#2 315658884#3 315658884#4 318747848#3 318747848#4"/>
    </vehicle>
    <vehicle id="96" type="passenger" depart="156.61">
        <route edges="384030401#1 -351672100#4"/>
    </vehicle>
    <vehicle id="97" type="passenger" depart="158.24">
        <route edges="315658884#2"/>
    </vehicle>
    <vehicle id="98" type="passenger" depart="159.87">
        <route edges="773060732#1 773060732#2 773060732#3 777881144#0 318747848#2 -315658884#4 -315658884#3 -315658884#2 -315658884#1 315658897#0 315658897#1 315658896#2 -318747848#7 -318747848#6 -318747848#5 -318747848#4"/>
    </vehicle>
    <vehicle id="99" type="passenger" depart="161.50">
        <route edges="-315658897#0 315658884#1 315658884#2 315658884#3 315658884#4 -318747848#2 379943755#1 379943753#0 379943753#1 712288152#0 712288152#1 712288152#2 619147739#3 619147739#4"/>
    </vehicle>
    <vehicle id="100" type="passenger" depart="163.13">
        <route edges="-651817398#2 -651817398#1 -651817398#0 619147739#1 619147739#2 619147739#3 619147739#4 315658884#1 315658884#2 315658884#3 315658884#4 -318747848#2 379943755#1 379943753#0 379943753#1 712288152#0 712288152#1 712288152#2"/>
    </vehicle>
    <vehicle id="101" type="passenger" depart="164.77">
        <route edges="-712288152#1 -712288152#0 1339655667#0 1339655667#1 -37403486#2 -37403486#1 -351672100#4"/>
    </vehicle>
    <vehicle id="102" type="passenger" depart="166.40">
        <route edges="315658884#2 315658884#3 315658884#4 -318747848#2 379943755#1 379943753#0 379943753#1 1339655667#0 1339655667#1 -37403486#2 -37403486#1 -1339655670"/>
    </vehicle>
    <vehicle id="103" type="passenger" depart="168.03">
        <route edges="315658896#2 -318747848#7 -318747848#6 -318747848#5 -318747848#4 -318747848#3 -315658884#4 -315658884#3 -315658884#2 -315658884#1 619147739#5 315658896#1 -315658897#1 -315658897#0"/>
    </vehicle>
    <vehicle id="104" type="passenger" depart="169.66">
        <route edges="-651817398#5 -651817398#4 -651817398#3 -651817398#2 -651817398#1 -651817398#0 619147739#1 619147739#2 -712288152#2 -712288152#1 -712288152#0 1339655667#0 1339655667#1 -37403486#2 -37403486#1 -351672100#4 -351672100#2"/>
    </vehicle>
    <vehicle id="105" type="passenger" depart="171.29">
        <route edges="-315658896#2 -315658897#1 -315658897#0 315658884#1 315658884#2 315658884#3 315658884#4 -318747848#2 379943755#1 379943753#0 379943753#1 1339697076#0 1339697076#1"/>
    </vehicle>
    <vehicle id="106" type="passenger" depart="172.92">
        <route edges="78628775#2 78628770#1 379943755#1 379943753#0 379943753#1 1339655667#0"/>
    </vehicle>
    <vehicle id="107" type="passenger" depart="174.55">
        <route edges="619147739#0 619147739#1 619147739#2 -712288152#2 -712288152#1 -712288152#0 1339697076#0 1339697076#1 1339697075#1 1339697075#2 1339697075#3 1339697075#4 1339697075#5 1339697075#6"/>
    </vehicle>
    <vehicle id="108" type="passenger" depart="176.19">
        <route edges="315658884#4 -318747848#2 379943755#1 379943753#0 379943753#1 1339697076#0"/>
    </vehicle>
    <vehicle id="109" type="passenger" depart="177.82">
        <route edges="777881144#0 318747848#2 -315658884#4 -315658884#3 -315658884#2 -315658884#1 315658897#0 315658897#1 315658896#2 -318747848#7 -318747848#6 -318747848#5 -318747848#4 -318747848#3"/>
    </vehicle>
    <vehicle id="110" type="passenger" depart="179.45">
        <route edges="770860549 821457682#1 333557072#3 -770860548#2 -770860548#1 770860565 78628775#2 78628770#1 379943755#1 379943753#0 379943753#1 712288152#0 712288152#1 712288152#2 619147739#3 619147739#4 315658884#1 315658884#2 315658884#3 315658884#4 -318747848#2"/>
    </vehicle>
    <vehicle id="111" type="passenger" depart="181.08">
        <route edges="770860549 821457682#1 333557072#3 -770860548#2 -770860548#1 770860565 78628775#2 78628770#1 318747848#2 -315658884#4 -315658884#3 -315658884#2 -315658884#1"/>
    </vehicle>
    <vehicle id="112" type="passenger" depart="182.71">
        <route edges="1339655667#1 -37403486#2 -37403486#1 -384030401#1"/>
    </vehicle>
    <vehicle id="113" type="passenger" depart="184.34">
        <route edges="333557072#2 333557072#3 -770860548#2 -770860548#1 770860565 78628775#2 78628770#1 318747848#2 318747848#3 318747848#4 318747848#5 318747848#6 318747848#7 -315658896#2"/>
    </vehicle>
    <vehicle id="114" type="passenger" depart="185.97">
        <route edges="-651817398#5 -651817398#4 -651817398#3 -651817398#2 -651817398#1 -651817398#0 619147739#1 619147739#2 -712288152#2 -712288152#1 -712288152#0 1339697076#0 1339697076#1 1339697075#1 1339697075#2 1339697075#3 1339697075#4 1339697075#5 1339697075#6 1339697074"/>
    </vehicle>
    <vehicle id="115" type="passenger" depart="187.60">
        <route edges="-315658884#2 -315658884#1 315658897#0 315658897#1 315658896#2 -318747848#7 -318747848#6 -318747848#5 -318747848#4 -318747848#3 -318747848#2 379943755#1 379943753#0 379943753#1 712288152#0 712288152#1"/>
    </vehicle>
    <vehicle id="116" type="passenger" depart="189.24">
        <route edges="-651817398#3 -651817398#2 -651817398#1 -651817398#0 619147739#1 619147739#2 -712288152#2 -712288152#1 -712288152#0 1339655667#0 1339655667#1 -37403486#2 -37403486#1 -384030401#1"/>
    </vehicle>
    <vehicle id="117" type="passenger" depart="190.87">
        <route edges="712288152#1 712288152#2 619147739#3 619147739#4 619147739#5 315658896#1 315658896#2 -318747848#7 -318747848#6"/>
    </vehicle>
    <vehicle id="118" type="passenger" depart="192.50">
        <route edges="-770860548#2 -770860548#1 770860565 78628775#2 78628770#1 318747848#2 -315658884#4 -315658884#3 -315658884#2 -315658884#1 315658897#0 315658897#1 315658897#2"/>
    </vehicle>
    <vehicle id="119" type="passenger" depart="194.13">
        <route edges="770860548#1 770860549 821457682#1 333557072#3 -770860548#2 -770860548#1 770860565 821457682#0"/>
    </vehicle>
    <vehicle id="120" type="passenger" depart="195.76">
        <route edges="712288152#0 712288152#1 712288152#2 619147739#3 619147739#4 315658884#1 315658884#2 315658884#3 315658884#4 -318747848#2 379943755#1 379943753#0 379943753#1 1339655667#0 1339655667#1 -37403486#2 -37403486#1 -384030401#1 778973690"/>
    </vehicle>
    <vehicle id="121" type="passenger" depart="197.39">