<?xml version="1.0" encoding="UTF-8"?>

<!-- generated on 2026-04-15 03:10:49.328365 by Eclipse SUMO randomTrips.py v1.26.0
<configuration>
    <net-file value="/Users/junlee/Desktop/2026-1/js/result/report_top12_seed4_2h/sumo_nets/cw_6511/network.net.xml"/>
    <output-trip-file value="/Users/junlee/Desktop/2026-1/js/result/report_top12_seed4_2h/sumo_nets/cw_6511/routes_seed42.trips.xml"/>
    <route-file value="/Users/junlee/Desktop/2026-1/js/result/report_top12_seed4_2h/sumo_nets/cw_6511/routes_seed42.rou.xml"/>
    <vehicle-class value="passenger"/>
    <end value="7200.0"/>
    <period value="5.899086348664728"/>
</configuration>
-->

<!-- generated on 2026-04-15T03:10:49.301067+09:00 by Eclipse SUMO duarouter 1.26.0
<duarouterConfiguration xmlns:xsi="http://www.w3.org/2001/XMLSchema-instance" xsi:noNamespaceSchemaLocation="http://sumo.dlr.de/xsd/duarouterConfiguration.xsd">

    <input>
        <net-file value="/Users/junlee/Desktop/2026-1/js/result/report_top12_seed4_2h/sumo_nets/cw_6511/network.net.xml"/>
        <route-files value="/Users/junlee/Desktop/2026-1/js/result/report_top12_seed4_2h/sumo_nets/cw_6511/routes_seed42.trips.xml"/>
    </input>

    <output>
        <output-file value="/Users/junlee/Desktop/2026-1/js/result/report_top12_seed4_2h/sumo_nets/cw_6511/routes_seed42.rou.xml"/>
        <alternatives-output value="NUL"/>
    </output>

    <time>
        <begin value="0.0"/>
        <end value="7200.0"/>
    </time>

    <report>
        <no-warnings value="true"/>
        <ignore-errors value="true"/>
        <no-step-log value="true"/>
    </report>

</duarouterConfiguration>
-->

<routes xmlns:xsi="http://www.w3.org/2001/XMLSchema-instance" xsi:noNamespaceSchemaLocation="http://sumo.dlr.de/xsd/routes_file.xsd">
    <vType id="passenger" vClass="passenger"/>
    <vehicle id="0" type="passenger" depart="0.00">
        <route edges="273028084#4 273028084#5 464461063 464461053#1 464461053#2 -913570918 273024752 781985786#4 781985786#5 781985790#0 781985790#1 -464461060 270279684#1 347237859#2 198691061#0 198691061#1 -198691091 -198691072#1 -198691062#1"/>
    </vehicle>
    <vehicle id="1" type="passenger" depart="5.90">
        <route edges="-775222468#3 -273028084#7 -273028084#6 -273028084#5 -273028084#4 -273028084#2 -273028084#1 -273028084#0 -464461053#2"/>
    </vehicle>
    <vehicle id="2" type="passenger" depart="11.80">
        <route edges="777422408 775222468#1 775222468#2 -273028084#7 -273028084#6 -273028084#5 -273028084#4 -273028084#2 -273028084#1 -273028084#0 -913570918 273024752 781985786#4 -270279684#1 -270279684#0"/>
    </vehicle>
    <vehicle id="3" type="passenger" depart="17.70">
        <route edges="-464461057#2 -464461057#1 381226323 464461053#2 -913570918 273024752 781985786#4 781985786#5 781985790#0 781985790#1 -464461060 270279684#1 347237859#2 198691061#0 198691061#1 -198691091 -198691072#1 -198691062#1 198691090"/>
    </vehicle>
    <vehicle id="4" type="passenger" depart="23.60">
        <route edges="273028084#5 464461063 464461053#1 464461053#2 -913570918 273024752 781985786#4 781985786#5 781985790#0 781985790#1 -464461060 270279684#1 347237859#2 198691061#0 198691082#3 198691092#3"/>
    </vehicle>
    <vehicle id="5" type="passenger" depart="29.50">
        <route edges="-464461057#2 -464461057#1 381226323 464461053#2 -913570918 273024752"/>
    </vehicle>
    <vehicle id="6" type="passenger" depart="35.39">
        <route edges="464461063 464461053#1 464461053#2 -913570918 273024752 781985786#4 781985786#5 781985790#0 781985790#1 -464461060 270279684#1 347237859#2 198691061#0 198691061#1 198691061#2 -198691068 -198691090 -198691055"/>
    </vehicle>
    <vehicle id="7" type="passenger" depart="41.29">
        <route edges="464461063 464461053#1 464461053#2 -913570918 273024752 781985786#4 781985786#5 781985790#0 781985790#1 -464461060 270279684#1 347237859#2 347237859#3"/>
    </vehicle>
    <vehicle id="8" type="passenger" depart="47.19">
        <route edges="-913570918 273024752 781985786#4 781985786#5 781985786#6 1109231376 620607766#0 620607766#1 620607766#2 620607766#3 775222468#0 775222468#1 775222468#2 -273028084#7 -273028084#6 -273028084#5"/>
    </vehicle>
    <vehicle id="9" type="passenger" depart="53.09">
        <route edges="781985790#0 781985790#1 -464461060 270279684#1 781985786#5 781985786#6 1109231376 620607766#0 620607766#1 620607766#2 270279686#0 270279686#1 -781985790#1 -781985790#0"/>
    </vehicle>
    <vehicle id="10" type="passenger" depart="58.99">
        <route edges="-270279686#1 -270279686#0 620607766#3 775222468#0 775222468#1 775222468#2 -273028084#7 -273028084#6 -273028084#5 -273028084#4 -273028084#2 -273028084#1 -273028084#0 -913570918 273024752 781985786#4 -270279684#1"/>
    </vehicle>
    <vehicle id="11" type="passenger" depart="64.89">
        <route edges="775222468#0 775222468#1 775222468#2 -273028084#7 -273028084#6 464461063 464461053#1 464461053#2 273028084#0 273028084#1"/>
    </vehicle>
    <vehicle id="12" type="passenger" depart="70.79">
        <route edges="464461063 464461053#1"/>
    </vehicle>
    <vehicle id="13" type="passenger" depart="76.69">
        <route edges="620607766#2 620607766#3 775222468#0 775222468#1 775222468#2 -273028084#7 -273028084#6 464461063 464461053#1 464461053#2 273028084#0 273028084#1 273028084#2 273028084#4"/>
    </vehicle>
    <vehicle id="14" type="passenger" depart="82.59">
        <route edges="775222468#1 775222468#2 -273028084#7 -273028084#6 -273028084#5 -273028084#4 -273028084#2 -273028084#1 -273028084#0 -913570918 273024752 781985786#4 781985786#5 781985786#6 1109231376 620607766#0 620607766#1 620607766#2 270279686#0 270279686#1"/>
    </vehicle>
    <vehicle id="15" type="passenger" depart="88.49">
        <route edges="-464461057#3 -464461057#2 -464461057#1 381226323 464461053#2 273028084#0 273028084#1 273028084#2 273028084#4 273028084#5 273028084#6 273028084#7 -775222468#2 -775222468#1 -775222468#0"/>
    </vehicle>
    <vehicle id="16" type="passenger" depart="94.39">
        <route edges="-270279686#0 620607766#3 775222468#0 775222468#1 775222468#2 -273028084#7 -273028084#6 464461063 464461053#1 -381226323 -464461057#0"/>
    </vehicle>
    <vehicle id="17" type="passenger" depart="100.28">
        <route edges="-273028084#0 -464461053#2 -464461053#1 -464461063"/>
    </vehicle>
    <vehicle id="18" type="passenger" depart="106.18">
        <route edges="273028084#2 273028084#4 273028084#5 464461063 464461053#1 464461053#2 -913570918"/>
    </vehicle>
    <vehicle id="19" type="passenger" depart="112.08">
        <route edges="273028084#5 464461063 464461053#1 464461053#2 273028084#0 273028084#1 273028084#2"/>
    </vehicle>
    <vehicle id="20" type="passenger" depart="117.98">
        <route edges="913570918 273028084#0 273028084#1 273028084#2 273028084#4 273028084#5 273028084#6"/>
    </vehicle>
    <vehicle id="21" type="passenger" depart="123.88">
        <route edges="218915133#0 218915133#1 347237859#0 347237859#1 347237859#2"/>
    </vehicle>
    <vehicle id="22" type="passenger" depart="129.78">
        <route edges="620607766#3 775222468#0 775222468#1 775222468#2 -273028084#7 -273028084#6 -273028084#5 -273028084#4 -273028084#2 -273028084#1 -273028084#0 -913570918 273024752 781985786#4 -270279684#1 464461060"/>
    </vehicle>
    <vehicle id="23" type="passenger" depart="135.68">
        <route edges="-781985790#1 -781985790#0 781985786#6 1109231376 620607766#0 620607766#1 620607766#2 270279686#0 270279686#1 -464461060"/>
    </vehicle>
    <vehicle id="24" type="passenger" depart="141.58">
        <route edges="-464461057#1 381226323 464461053#2 -913570918 273024752 781985786#4 781985786#5 781985790#0"/>
    </vehicle>
    <vehicle id="25" type="passenger" depart="147.48">
        <route edges="775222468#3 -277257944#1 464461063 -464461053#0 -775222468#4 -775222468#3"/>
    </vehicle>
    <vehicle id="26" type="passenger" depart="153.38">
        <route edges="273028084#6 273028084#7 775222468#3 -277257944#1 -273028084#5 -273028084#4 -273028084#2 -273028084#1 -273028084#0 -913570918 273024752 781985786#4 781985786#5 781985790#0 781985790#1 -464461060 270279684#1 347237859#2 198691061#0 198691061#1"/>
    </vehicle>
    <vehicle id="27" type="passenger" depart="159.28">
        <route edges="781985786#2 781985786#3 781985786#4 781985786#5 781985790#0 781985790#1 -464461060 270279684#1 347237859#2 198691061#0 198691061#1 198691071#0"/>
    </vehicle>
    <vehicle id="28" type="passenger" depart="165.17">
        <route edges="270279684#1 781985786#5 781985786#6 1109231376 620607766#0 620607766#1 620607766#2 620607766#3 775222468#0 775222468#1 775222468#2 -273028084#7 -273028084#6 464461063 464461053#1 -381226323 464461057#1 464461057#2 464461057#3 781985786#2"/>
    </vehicle>
    <vehicle id="29" type="passenger" depart="171.07">
        <route edges="913570919 273024752 781985786#4 781985786#5 781985790#0 781985790#1 -464461060 270279684#1 347237859#2 198691061#0 198691061#1 -198691091 -198691072#1 -198691062#1 198691090"/>
    </vehicle>
    <vehicle id="30" type="passenger" depart="176.97">
        <route edges="-273028084#1 -273028084#0 -464461053#2 -381226323 464461057#1 464461057#2 464461057#3 781985786#2 913570919 913570918 273028084#0 273028084#1 273028084#2 273028084#4 273028084#5"/>
    </vehicle>
    <vehicle id="31" type="passenger" depart="182.87">
        <route edges="464461057#3 781985786#2 781985786#3 781985786#4 781985786#5 781985790#0 781985790#1 -464461060 270279684#1 347237859#2 198691061#0 198691061#1 198691061#2 -198691068 -198691090 198691062#1"/>
    </vehicle>
    <vehicle id="32" type="passenger" depart="188.77">
        <route edges="913570919 273024752 781985786#4 781985786#5 781985790#0 781985790#1 -464461060 270279684#1 347237859#2 198691061#0 198691061#1 198691061#2 -198691068 198691092#1"/>
    </vehicle>
    <vehicle id="33" type="passenger" depart="194.67">
        <route edges="781985790#1 -270279686#1 -270279686#0 620607766#3 775222468#0 775222468#1 775222468#2 775222468#3 775222468#4"/>
    </vehicle>
    <vehicle id="34" type="passenger" depart="200.57">
        <route edges="347237859#0 347237859#1 347237859#2 198691061#0 198691061#1 -198691091 198691092#2"/>
    </vehicle>
    <vehicle id="35" type="passenger" depart="206.47">
        <route edges="781985786#1 781985786#2 781985786#3 781985786#4 781985786#5 781985786#6 1109231376 620607766#0 620607766#1 620607766#2 620607766#3 775222468#0 775222468#1 775222468#2 775222468#3 775222468#4 775222468#5"/>
    </vehicle>
    <vehicle id="36" type="passenger" depart="212.37">
        <route edges="273024752 781985786#4 781985786#5 781985786#6 1109231376 620607766#0 620607766#1 620607766#2 620607766#3 775222468#0 775222468#1 775222468#2 -273028084#7 -273028084#6 -273028084#5 -273028084#4"/>
    </vehicle>
    <vehicle id="37" type="passenger" depart="218.27">
        <route edges="464461057#0 464461057#1 464461057#2 464461057#3 781985786#2 781985786#3 781985786#4 781985786#5 781985790#0 781985790#1 -464461060 270279684#1 347237859#2 198691061#0 198691082#3 198691092#3"/>
    </vehicle>
    <vehicle id="38" type="passenger" depart="224.17">
        <route edges="464461057#2 464461057#3 781985786#2 781985786#3 781985786#4 781985786#5 781985790#0 781985790#1 -464461060 270279684#1 347237859#2 198691061#0 198691061#1 -198691091 198691092#2"/>
    </vehicle>
    <vehicle id="39" type="passenger" depart="230.06">
        <route edges="775222468#3 -277257944#1 -273028084#5 -273028084#4 -273028084#2 -273028084#1 -273028084#0 -913570918 273024752 781985786#4 781985786#5 781985786#6 1109231376 620607766#0 620607766#1 620607766#2 620607766#3 775222468#0 775222468#1"/>
    </vehicle>
    <vehicle id="40" type="passenger" depart="235.96">
        <route edges="-781985790#0 781985786#6 1109231376 620607766#0 620607766#1 620607766#2 270279686#0 270279686#1 -464461060 270279684#1 347237859#2 198691061#0 198691061#1 -198691091 -198691072#1 -198691072#0"/>
    </vehicle>
    <vehicle id="41" type="passenger" depart="241.86">
        <route edges="775222468#3 -277257944#1 -273028084#5 -273028084#4 -273028084#2 -273028084#1 -273028084#0 -913570918 273024752 781985786#4 781985786#5 781985790#0"/>
    </vehicle>
    <vehicle id="42" type="passenger" depart="247.76">
        <route edges="-270279684#1 464461060 -270279686#1 -270279686#0 620607766#3 775222468#0 775222468#1 775222468#2 -273028084#7 -273028084#6 464461063 464461053#1 -381226323 464461057#1 464461057#2"/>
    </vehicle>
    <vehicle id="43" type="passenger" depart="253.66">
        <route edges="464461057#0 381226323 -464461053#1 -464461063 -273028084#5 -273028084#4 -273028084#2 -273028084#1"/>
    </vehicle>
    <vehicle id="44" type="passenger" depart="259.56">
        <route edges="198691063#0 347237859#1 -270279684#1 464461060 -270279686#1 -270279686#0 620607766#3 775222468#0 775222468#1 775222468#2 -273028084#7 -273028084#6 464461063 -464461053#0"/>
    </vehicle>
    <vehicle id="45" type="passenger" depart="265.46">
        <route edges="-464461053#2 -464461053#1 -464461053#0 -775222468#4 -775222468#3"/>
    </vehicle>
    <vehicle id="46" type="passenger" depart="271.36">
        <route edges="913570919 913570918 273028084#0 273028084#1 273028084#2 273028084#4 273028084#5 277257944#1"/>
    </vehicle>
    <vehicle id="47" type="passenger" depart="277.26">
        <route edges="-273028084#4 -273028084#2 -273028084#1 -273028084#0 -464461053#2"/>
    </vehicle>
    <vehicle id="48" type="passenger" depart="283.16">
        <route edges="-913570918 273024752"/>
    </vehicle>
    <vehicle id="49" type="passenger" depart="289.06">
        <route edges="-464461057#3 -464461057#2 -464461057#1 381226323 -464461053#1"/>
    </vehicle>
    <vehicle id="50" type="passenger" depart="294.95">
        <route edges="-270279684#1 464461060 -270279686#1 -270279686#0 620607766#3 775222468#0 775222468#1 775222468#2 -273028084#7 -273028084#6 464461063 464461053#1 464461053#2 273028084#0 273028084#1 273028084#2 273028084#4 273028084#5"/>
    </vehicle>
    <vehicle id="51" type="passenger" depart="300.85">
        <route edges="-464461057#3 -464461057#2 -464461057#1 381226323 464461053#2 273028084#0 273028084#1 273028084#2 273028084#4 273028084#5 464461063 464461053#1 -381226323 464461057#1 464461057#2 464461057#3 781985786#2"/>
    </vehicle>
    <vehicle id="52" type="passenger" depart="306.75">
        <route edges="775222468#1 775222468#2 -273028084#7 -273028084#6 -273028084#5 -273028084#4 -273028084#2 -273028084#1 -273028084#0 -913570918 273024752 781985786#4 781985786#5 781985790#0 781985790#1 -464461060 270279684#1 347237859#2 198691061#0 198691061#1 198691061#2 -198691068 -198691090"/>
    </vehicle>
    <vehicle id="53" type="passenger" depart="312.65">
        <route edges="-464461057#1 381226323 -464461053#1 -464461063 -273028084#5 -273028084#4 -273028084#2 -273028084#1"/>
    </vehicle>
    <vehicle id="54" type="passenger" depart="318.55">
        <route edges="781985786#4 781985786#5 781985786#6 1109231376 620607766#0 620607766#1 620607766#2 270279686#0"/>
    </vehicle>
    <vehicle id="55" type="passenger" depart="324.45">
        <route edges="198691082#0 198691082#1 198691063#0 347237859#1 -270279684#1 464461060 -270279686#1 -270279686#0 620607766#3 775222468#0 775222468#1 775222468#2 -273028084#7 -273028084#6 464461063"/>
    </vehicle>
    <vehicle id="56" type="passenger" depart="330.35">
        <route edges="464461063 464461053#1 464461053#2 -913570918 273024752 781985786#4 781985786#5 781985790#0 781985790#1 -270279686#1 -381226321"/>
    </vehicle>
    <vehicle id="57" type="passenger" depart="336.25">
        <route edges="198691063#0 347237859#1 347237859#2 198691061#0 198691061#1 198691071#0 198691071#1"/>
    </vehicle>
    <vehicle id="58" type="passenger" depart="342.15">
        <route edges="913570918 -464461053#2 -381226323 464461057#1 464461057#2 464461057#3 781985786#2 781985786#3 781985786#4 -270279684#1"/>
    </vehicle>
    <vehicle id="59" type="passenger" depart="348.05">
        <route edges="-464461053#1 -464461063 -273028084#5 -273028084#4 -273028084#2 -273028084#1 -273028084#0 -913570918 273024752 781985786#4 781985786#5 781985790#0 781985790#1 -464461060 270279684#1 347237859#2 198691061#0 198691061#1 -198691091 -198691072#1 -198691062#1 198691090 198691068"/>
    </vehicle>
    <vehicle id="60" type="passenger" depart="353.95">
        <route edges="-464461063 -273028084#5 -273028084#4 -273028084#2 -273028084#1 -273028084#0 -913570918 273024752 781985786#4 781985786#5"/>
    </vehicle>
    <vehicle id="61" type="passenger" depart="359.84">
        <route edges="913570919 273024752 781985786#4 781985786#5 781985786#6 1109231376 620607766#0 620607766#1 620607766#2 620607766#3 775222468#0 775222468#1"/>
    </vehicle>
    <vehicle id="62" type="passenger" depart="365.74">
        <route edges="781985790#1 -464461060 270279684#1 781985786#5"/>
    </vehicle>
    <vehicle id="63" type="passenger" depart="371.64">
        <route edges="775222468#0 775222468#1 775222468#2 -273028084#7 -273028084#6"/>
    </vehicle>
    <vehicle id="64" type="passenger" depart="377.54">
        <route edges="198691061#2 -198691068 -198691090 198691062#1 -198691072#0"/>
    </vehicle>
    <vehicle id="65" type="passenger" depart="383.44">
        <route edges="198691057#1 198691082#1 198691063#0 347237859#1 -270279684#1 464461060 -270279686#1 -270279686#0 620607766#3 775222468#0 775222468#1 775222468#2 -273028084#7 -273028084#6 464461063 464461053#1 -381226323 464461057#1 464461057#2 464461057#3 781985786#2 913570919 913570918"/>
    </vehicle>
    <vehicle id="66" type="passenger" depart="389.34">
        <route edges="198691072#0 198691072#1 198691091 198691061#2 -198691068 -198691090 198691062#1"/>
    </vehicle>
    <vehicle id="67" type="passenger" depart="395.24">
        <route edges="781985790#0 781985790#1 -270279686#1 -270279686#0 620607766#3 775222468#0 775222468#1 775222468#2 -273028084#7 -273028084#6 464461063 464461053#1 -381226323 464461057#1 464461057#2 464461057#3 781985786#2 913570919"/>
    </vehicle>
    <vehicle id="68" type="passenger" depart="401.14">
        <route edges="218915133#0 218915133#1 347237859#0 347237859#1 -270279684#1 464461060 -270279686#1 -270279686#0 620607766#3 775222468#0 775222468#1 775222468#2 775222468#3 775222468#4 464461053#0"/>
    </vehicle>
    <vehicle id="69" type="passenger" depart="407.04">
        <route edges="-273028084#7 -273028084#6 277257944#1 -775222468#3 -775222468#2 -775222468#1"/>
    </vehicle>
    <vehicle id="70" type="passenger" depart="412.94">
        <route edges="781985790#1 -464461060 270279684#1 781985786#5 781985786#6 1109231376 620607766#0 620607766#1 620607766#2 270279686#0 270279686#1"/>
    </vehicle>
    <vehicle id="71" type="passenger" depart="418.84">
        <route edges="-277257944#1 -273028084#5 -273028084#4 -273028084#2 -273028084#1 -273028084#0 -913570918 273024752 781985786#4 781985786#5 781985790#0 781985790#1 781985790#3"/>
    </vehicle>
    <vehicle id="72" type="passenger" depart="424.73">
        <route edges="-270279686#0 620607766#3 775222468#0 775222468#1 775222468#2 775222468#3 -277257944#1"/>
    </vehicle>
    <vehicle id="73" type="passenger" depart="430.63">
        <route edges="-464461060 270279684#1 781985786#5 781985786#6 1109231376 620607766#0 620607766#1 620607766#2 620607766#3 775222468#0 775222468#1 775222468#2 -273028084#7 -273028084#6 -273028084#5 -273028084#4 -273028084#2 -273028084#1 -273028084#0"/>
    </vehicle>
    <vehicle id="74" type="passenger" depart="436.53">
        <route edges="270279686#0 270279686#1 -781985790#1 -781985790#0 781985786#6 1109231376 620607766#0 620607766#1 620607766#2 620607766#3 775222468#0 775222468#1 775222468#2 -273028084#7 -273028084#6 464461063 464461053#1 464461053#2 273028084#0 273028084#1 273028084#2 273028084#4"/>
    </vehicle>
    <vehicle id="75" type="passenger" depart="442.43">
        <route edges="-464461060 270279684#1 347237859#2 198691061#0 198691061#1"/>
    </vehicle>
    <vehicle id="76" type="passenger" depart="448.33">
        <route edges="273028084#7 -775222468#2"/>
    </vehicle>
    <vehicle id="77" type="passenger" depart="454.23">
        <route edges="-781985790#1 -781985790#0 781985786#6 1109231376 620607766#0 620607766#1 620607766#2 620607766#3 775222468#0 775222468#1 775222468#2 -273028084#7 -273028084#6 464461063 464461053#1 -381226323 464461057#1"/>
    </vehicle>
    <vehicle id="78" type="passenger" depart="460.13">
        <route edges="-270279684#1 464461060 -781985790#1 -781985790#0 781985786#6 1109231376 620607766#0 620607766#1 620607766#2 270279686#0 270279686#1 -464461060 270279684#1 347237859#2 198691061#0 198691061#1 198691071#0"/>
    </vehicle>
    <vehicle id="79" type="passenger" depart="466.03">
        <route edges="913570919"/>
    </vehicle>
    <vehicle id="80" type="passenger" depart="471.93">
        <route edges="-270279684#1 464461060 -270279686#1 -270279686#0 620607766#3 775222468#0 775222468#1 775222468#2 -273028084#7 -273028084#6 464461063 -464461053#0"/>
    </vehicle>
    <vehicle id="81" type="passenger" depart="477.83">
        <route edges="620607766#2 270279686#0 270279686#1 -464461060 270279684#1 347237859#2 347237859#3 347237859#4"/>
    </vehicle>
    <vehicle id="82" type="passenger" depart="483.73">
        <route edges="273024752 781985786#4 781985786#5 781985786#6 1109231376 620607766#0 620607766#1 620607766#2 620607766#3 775222468#0 775222468#1 775222468#2 -273028084#7 -273028084#6 464461063 464461053#1 -381226323 464461057#1 464461057#2 464461057#3 781985786#2 913570919 913570918"/>
    </vehicle>
    <vehicle id="83" type="passenger" depart="489.62">
        <route edges="273028084#5 464461063 464461053#1 464461053#2 -913570918 273024752 781985786#4 781985786#5 781985790#0 781985790#1 -464461060 270279684#1 347237859#2 198691061#0 198691061#1 198691061#2 -198691068 -198691090 -198691055"/>
    </vehicle>
    <vehicle id="84" type="passenger" depart="495.52">
        <route edges="620607766#0 620607766#1 620607766#2 620607766#3 775222468#0 775222468#1 775222468#2 775222468#3 -277257944#1 273028084#6 273028084#7 -775222468#2"/>
    </vehicle>
    <vehicle id="85" type="passenger" depart="501.42">
        <route edges="273028084#6 273028084#7 775222468#3 -277257944#1 -273028084#5 -273028084#4 -273028084#2 -273028084#1 -273028084#0 -913570918 273024752 781985786#4 781985786#5 781985786#6"/>
    </vehicle>
    <vehicle id="86" type="passenger" depart="507.32">
        <route edges="-273028084#5 -273028084#4 -273028084#2 -273028084#1 -273028084#0 -913570918 273024752 781985786#4 781985786#5 781985790#0 781985790#1 -270279686#1"/>
    </vehicle>
    <vehicle id="87" type="passenger" depart="513.22">
        <route edges="-775222468#3 -273028084#7 -273028084#6 464461063 464461053#1 464461053#2 273028084#0 273028084#1"/>
    </vehicle>
    <vehicle id="88" type="passenger" depart="519.12">
        <route edges="381226321 -270279686#0 620607766#3 775222468#0 775222468#1 775222468#2 -273028084#7 -273028084#6 464461063 464461053#1 -381226323"/>
    </vehicle>
    <vehicle id="89" type="passenger" depart="525.02">
        <route edges="775222468#0 775222468#1 775222468#2 -273028084#7 -273028084#6 -273028084#5 -273028084#4 -273028084#2 -273028084#1 -273028084#0 -913570918 273024752 781985786#4 -270279684#1 -270279684#0"/>
    </vehicle>
    <vehicle id="90" type="passenger" depart="530.92">
        <route edges="198691063#0 347237859#1 -270279684#1 464461060 -270279686#1 -270279686#0 620607766#3 775222468#0 775222468#1 775222468#2 775222468#3 775222468#4 464461053#0 -464461063"/>
    </vehicle>
    <vehicle id="91" type="passenger" depart="536.82">
        <route edges="198691063#0 347237859#1 347237859#2 198691061#0 198691061#1 198691061#2 -198691068 -198691090 -198691062#0"/>
    </vehicle>
    <vehicle id="92" type="passenger" depart="542.72">
        <route edges="-270279684#1 464461060 -781985790#1 -781985790#0 781985786#6 781985784"/>
    </vehicle>
    <vehicle id="93" type="passenger" depart="548.62">
        <route edges="781985786#0 781985786#1 781985786#2 781985786#3 781985786#4 781985786#5 781985790#0 781985790#1 -464461060 270279684#1 347237859#2 198691061#0 198691082#3 198691092#3"/>
    </vehicle>
    <vehicle id="94" type="passenger" depart="554.51">
        <route edges="620607766#2 620607766#3 775222468#0 775222468#1 775222468#2 -273028084#7 -273028084#6 -273028084#5 -273028084#4 -273028084#2 -273028084#1 -273028084#0 -913570918 273024752"/>
    </vehicle>
    <vehicle id="95" type="passenger" depart="560.41">
        <route edges="-273028084#7 -273028084#6 -273028084#5 -273028084#4 -273028084#2 -273028084#1 -273028084#0"/>
    </vehicle>
    <vehicle id="96" type="passenger" depart="566.31">
        <route edges="-781985790#0 781985786#6 1109231376 620607766#0 620607766#1 620607766#2 620607766#3 775222468#0 775222468#1 775222468#2 -273028084#7 -273028084#6 464461063 464461053#1 -381226323 464461057#1 464461057#2 464461057#3 781985786#2"/>
    </vehicle>
    <vehicle id="97" type="passenger" depart="572.21">
        <route edges="464461060 -270279686#1 -270279686#0 620607766#3 775222468#0 775222468#1 775222468#2 775222468#3 775222468#4"/>
    </vehicle>
    <vehicle id="98" type="passenger" depart="578.11">
        <route edges="781985786#0 781985786#1 -464461057#3 -464461057#2 -464461057#1 381226323 -464461053#1 -464461053#0"/>
    </vehicle>
    <vehicle id="99" type="passenger" depart="584.01">
        <route edges="-464461063 -273028084#5 -273028084#4 -273028084#2 -273028084#1 -273028084#0 -913570918 273024752 781985786#4 781985786#5 781985790#0 781985790#1 -270279686#1 -270279686#0"/>
    </vehicle>
    <vehicle id="100" type="passenger" depart="589.91">
        <route edges="464461057#2 464461057#3 781985786#2 781985786#3 781985786#4 781985786#5 781985786#6 781985784"/>
    </vehicle>
    <vehicle id="101" type="passenger" depart="595.81">
        <route edges="-273028084#7 -273028084#6 -273028084#5 -273028084#4 -273028084#2 -273028084#1 -273028084#0 -913570918 273024752 781985786#4 781985786#5"/>
    </vehicle>
    <vehicle id="102" type="passenger" depart="601.71">
        <route edges="775222468#2 -273028084#7 -273028084#6 -273028084#5 -273028084#4 -273028084#2 -273028084#1 -273028084#0 -913570918 273024752 781985786#4 781985786#5 781985786#6 1109231376 783692390"/>
    </vehicle>
    <vehicle id="103" type="passenger" depart="607.61">
        <route edges="620607766#0 620607766#1 620607766#2 270279686#0 270279686#1 -781985790#1 -781985790#0 781985786#6 781985784"/>
    </vehicle>
    <vehicle id="104" type="passenger" depart="613.50">
        <route edges="-781985790#4 -781985790#3 -464461060 270279684#1 781985786#5"/>
    </vehicle>
    <vehicle id="105" type="passenger" depart="619.40">
        <route edges="464461063 -464461053#0 775222468#5"/>
    </vehicle>
    <vehicle id="106" type="passenger" depart="625.30">
        <route edges="620607766#0 620607766#1 620607766#2 270279686#0 270279686#1 -464461060"/>
    </vehicle>
    <vehicle id="107" type="passenger" depart="631.20">
        <route edges="464461057#3 781985786#2 781985786#3 781985786#4 781985786#5 781985790#0 781985790#1 -270279686#1 -270279686#0"/>
    </vehicle>
    <vehicle id="108" type="passenger" depart="637.10">
        <route edges="775222468#3 775222468#4"/>
    </vehicle>
    <vehicle id="109" type="passenger" depart="643.00">
        <route edges="-464461057#2 -464461057#1 381226323 464461053#2 -913570918 273024752 781985786#4 781985786#5 781985786#6 1109231376 620607766#0 620607766#1 620607766#2 620607766#3"/>
    </vehicle>
    <vehicle id="110" type="passenger" depart="648.90">
        <route edges="464461060 -270279686#1 -270279686#0 620607766#3 775222468#0 775222468#1 775222468#2 -273028084#7 -273028084#6 -273028084#5 -273028084#4 -273028084#2 -273028084#1 -273028084#0 -464461053#2"/>
    </vehicle>
    <vehicle id="111" type="passenger" depart="654.80">
        <route edges="-781985790#4 -781985790#3 -270279686#1 -270279686#0 620607766#3 775222468#0 775222468#1 775222468#2 775222468#3 775222468#4 775222468#5"/>
    </vehicle>
    <vehicle id="112" type="passenger" depart="660.70">
        <route edges="781985790#1 -270279686#1 -270279686#0 620607766#3 775222468#0 775222468#1 775222468#2 775222468#3 775222468#4 464461053#0 -464461063"/>
    </vehicle>
    <vehicle id="113" type="passenger" depart="666.60">
        <route edges="273028084#4 273028084#5 464461063 464461053#1 464461053#2 -913570918 273024752 781985786#4 781985786#5 781985790#0 781985790#1 -464461060 270279684#1 347237859#2 198691061#0 198691061#1"/>
    </vehicle>
    <vehicle id="114" type="passenger" depart="672.50">
        <route edges="781985786#4 781985786#5 781985790#0 781985790#1 -270279686#1"/>
    </vehicle>
    <vehicle id="115" type="passenger" depart="678.39">
        <route edges="781985790#1 -270279686#1 -270279686#0 620607766#3 775222468#0 775222468#1 775222468#2 -273028084#7"/>
    </vehicle>
    <vehicle id="116" type="passenger" depart="684.29">
        <route edges="781985790#0 781985790#1 -464461060"/>
    </vehicle>
    <vehicle id="117" type="passenger" depart="690.19">
        <route edges="381226323 -464461053#1 -464461053#0 -775222468#4 -775222468#3"/>
    </vehicle>
    <vehicle id="118" type="passenger" depart="696.09">
        <route edges="273024752 781985786#4 781985786#5 781985790#0 781985790#1 -464461060 270279684#1 347237859#2 198691061#0 198691061#1 -198691091 -198691072#1 -198691062#1 198691090"/>
    </vehicle>
    <vehicle id="119" type="passenger" depart="701.99">
        <route edges="198691055 198691062#1 198691072#1 198691091 198691061#2 -198691068 -198691090"/>
    </vehicle>
    <vehicle id="120" type="passenger" depart="707.89">
        <route edges="273028084#7 -775222468#2 -775222468#1 -777422408"/>