<?xml version="1.0" encoding="UTF-8"?>

<!-- generated on 2026-04-15T00:21:58.120925+09:00 by Eclipse SUMO netconvert 1.26.0
<netconvertConfiguration xmlns:xsi="http://www.w3.org/2001/XMLSchema-instance" xsi:noNamespaceSchemaLocation="http://sumo.dlr.de/xsd/netconvertConfiguration.xsd">

    <input>
        <osm-files value="/Users/junlee/Desktop/2026-1/js/result/2026-04-15_00-06-49/sumo_nets/cw_21869/map.osm"/>
    </input>

    <output>
        <output-file value="/Users/junlee/Desktop/2026-1/js/result/2026-04-15_00-06-49/sumo_nets/cw_21869/network.net.xml"/>
    </output>

    <projection>
        <proj.utm value="true"/>
    </projection>

    <processing>
        <geometry.remove value="true"/>
        <roundabouts.guess value="true"/>
    </processing>

    <tls_building>
        <tls.guess value="true"/>
        <tls.guess-signals value="true"/>
    </tls_building>

    <ramp_guessing>
        <ramps.guess value="true"/>
    </ramp_guessing>

    <edge_removal>
        <keep-edges.by-vclass value="passenger,pedestrian"/>
    </edge_removal>

    <junctions>
        <no-turnarounds value="true"/>
        <junctions.join value="true"/>
    </junctions>

    <pedestrian>
        <sidewalks.guess value="true"/>
        <sidewalks.guess.max-speed value="13.89"/>
        <crossings.guess value="true"/>
    </pedestrian>

    <report>
        <verbose value="true"/>
    </report>

</netconvertConfiguration>
-->

<net version="1.20" junctionCornerDetail="5" walkingareas="true" limitTurnSpeed="5.50" xmlns:xsi="http://www.w3.org/2001/XMLSchema-instance" xsi:noNamespaceSchemaLocation="http://sumo.dlr.de/xsd/net_file.xsd">

    <location netOffset="-321228.65,-4158460.13" convBoundary="0.00,0.00,1025.57,880.65" origBoundary="126.972449,37.552576,126.992391,37.563810" projParameter="+proj=utm +zone=52 +ellps=WGS84 +datum=WGS84 +units=m +no_defs"/>

    <type id="highway.footway" priority="1" numLanes="1" speed="2.78" allow="pedestrian" oneway="1" width="2.00"/>
    <type id="highway.pedestrian" priority="1" numLanes="1" speed="2.78" allow="pedestrian" oneway="1" width="2.00"/>
    <type id="highway.primary" priority="12" numLanes="2" speed="27.78" disallow="tram rail_urban rail rail_electric rail_fast ship container cable_car subway aircraft wheelchair scooter drone" oneway="0"/>
    <type id="highway.primary_link" priority="7" numLanes="1" speed="22.22" disallow="tram rail_urban rail rail_electric rail_fast ship container cable_car subway aircraft wheelchair scooter drone" oneway="0"/>
    <type id="highway.residential" priority="3" numLanes="1" speed="13.89" disallow="tram rail_urban rail rail_electric rail_fast ship container cable_car subway aircraft wheelchair scooter drone" oneway="0"/>
    <type id="highway.secondary" priority="11" numLanes="1" speed="27.78" disallow="tram rail_urban rail rail_electric rail_fast ship container cable_car subway aircraft wheelchair scooter drone" oneway="0"/>
    <type id="highway.service" priority="1" numLanes="1" speed="5.56" allow="pedestrian delivery bicycle" oneway="0"/>

    <edge id=":10316028041_w0" function="walkingarea">
        <lane id=":10316028041_w0_0" index="0" allow="pedestrian" speed="2.78" length="3.20" width="6.40" shape="304.74,577.41 307.87,578.09 301.61,576.73 304.74,577.41"/>
    </edge>
    <edge id=":10316028044_0" function="internal">
        <lane id=":10316028044_0_0" index="0" allow="pedestrian delivery bicycle" speed="5.56" length="4.52" shape="305.00,570.05 303.90,570.48 303.05,571.15 302.46,572.05 302.12,573.18"/>
    </edge>
    <edge id=":10316028044_1" function="internal">
        <lane id=":10316028044_1_0" index="0" allow="pedestrian delivery bicycle" speed="5.22" length="7.19" shape="305.00,570.05 302.48,570.46 300.78,570.20 299.89,569.26 299.82,567.64"/>
    </edge>
    <edge id=":10316028044_2" function="internal">
        <lane id=":10316028044_2_0" index="0" allow="pedestrian delivery bicycle" speed="3.21" length="1.85" shape="302.97,568.18 303.11,567.75 303.36,567.40 303.73,567.13 304.20,566.95"/>
    </edge>
    <edge id=":10316028044_3" function="internal">
        <lane id=":10316028044_3_0" index="0" allow="pedestrian delivery bicycle" speed="5.56" length="5.07" shape="302.97,568.18 302.12,573.18"/>
    </edge>
    <edge id=":10316028044_4" function="internal">
        <lane id=":10316028044_4_0" index="0" allow="pedestrian delivery bicycle" speed="5.56" length="5.08" shape="298.96,572.65 299.82,567.64"/>
    </edge>
    <edge id=":10316028044_5" function="internal">
        <lane id=":10316028044_5_0" index="0" allow="pedestrian delivery bicycle" speed="5.56" length="8.23" shape="298.96,572.65 299.58,570.59 300.66,568.95 302.20,567.74 304.20,566.95"/>
    </edge>
    <edge id=":10316028044_w0" function="walkingarea">
        <lane id=":10316028044_w0_0" index="0" allow="pedestrian" speed="2.78" length="4.77" width="6.40" shape="305.40,571.60 303.81,565.40 304.55,568.45 298.24,567.37 297.39,572.38 303.70,573.45 304.00,572.59 304.25,572.25 304.56,571.97 304.95,571.75"/>
    </edge>
    <edge id=":10316028050_0" function="internal">
        <lane id=":10316028050_0_0" index="0" disallow="tram rail_urban rail rail_electric rail_fast ship container cable_car subway aircraft wheelchair scooter drone" speed="27.78" length="8.73" shape="330.65,608.43 328.37,607.42 327.10,606.03 325.82,604.66 323.53,603.71"/>
    </edge>
    <edge id=":10316028050_1" function="internal">
        <lane id=":10316028050_1_0" index="0" disallow="tram rail_urban rail rail_electric rail_fast ship container cable_car subway aircraft wheelchair scooter drone" speed="27.78" length="8.46" shape="324.13,600.57 326.67,600.55 328.42,599.77 330.16,599.01 332.69,599.05"/>
        <lane id=":10316028050_1_1" index="1" disallow="tram rail_urban rail rail_electric rail_fast ship container cable_car subway aircraft wheelchair scooter drone" speed="27.78" length="8.46" shape="324.13,600.57 332.01,602.18"/>
    </edge>
    <edge id=":10316028050_w0" function="walkingarea">
        <lane id=":10316028050_w0_0" index="0" allow="pedestrian" speed="2.78" length="8.76" width="12.80" shape="330.31,609.99 333.03,597.49 329.71,596.61 328.51,596.16 327.61,595.70 327.02,595.23 326.73,594.76 324.80,595.29 325.25,597.47 325.26,598.21 325.13,598.71 324.85,598.97 324.43,599.00 323.23,605.29 326.00,606.66 326.78,607.60 327.55,608.55 328.63,609.39"/>
    </edge>
    <edge id=":10316028051_w0" function="walkingarea">
        <lane id=":10316028051_w0_0" index="0" allow="pedestrian" speed="2.78" length="3.94" width="2.00" shape="326.72,584.43 326.75,582.40 325.95,582.09 325.69,581.83 325.52,581.51 325.45,581.12 325.46,580.66 323.48,580.40 323.18,581.30 322.92,581.59 322.59,581.78 322.17,581.86 321.69,581.84 321.54,583.84 322.34,584.12 322.61,584.37 322.78,584.69 322.86,585.08 322.85,585.54 324.84,585.77 325.13,584.89 325.40,584.61 325.76,584.44 326.20,584.38"/>
    </edge>
    <edge id=":10316028054_0" function="internal">
        <lane id=":10316028054_0_0" index="0" disallow="pedestrian tram rail_urban rail rail_electric rail_fast ship container cable_car subway aircraft wheelchair scooter drone" speed="13.89" length="5.24" shape="329.22,527.71 324.09,526.65"/>
    </edge>
    <edge id=":10316028054_1" function="internal">
        <lane id=":10316028054_1_0" index="0" disallow="pedestrian tram rail_urban rail rail_electric rail_fast ship container cable_car subway aircraft wheelchair scooter drone" speed="13.89" length="5.18" shape="324.78,523.52 329.85,524.58"/>
    </edge>
    <edge id=":10316028054_c0" function="crossing" crossingEdges="301285279#2 -301285279#2">
        <lane id=":10316028054_c0_0" index="0" allow="pedestrian" speed="2.78" length="6.40" width="4.00" shape="327.63,522.50 326.36,528.77" outlineShape="329.61,522.79 328.30,529.26 324.40,528.37 325.67,522.10"/>
    </edge>
    <edge id=":10316028054_w0" function="walkingarea">
        <lane id=":10316028054_w0_0" index="0" allow="pedestrian" speed="2.78" length="3.70" width="4.00" shape="323.74,528.21 323.31,530.16 325.06,532.48 327.06,532.44 328.50,531.24 328.90,529.28 328.32,529.17 324.40,528.37"/>
    </edge>
    <edge id=":10316028054_w1" function="walkingarea">
        <lane id=":10316028054_w1_0" index="0" allow="pedestrian" speed="2.78" length="3.55" width="4.00" shape="325.67,522.10 329.59,522.89 330.17,523.01 330.57,521.05 325.57,520.01 325.13,521.96"/>
    </edge>
    <edge id=":10316028072_w0" function="walkingarea">
        <lane id=":10316028072_w0_0" index="0" allow="pedestrian" speed="2.78" length="3.65" width="2.00" shape="380.62,589.40 380.04,587.48 378.71,586.42 376.51,586.54 374.57,587.24 373.24,587.79 372.55,588.20 372.47,588.45 373.02,588.57 374.19,588.53 374.34,590.52 375.29,590.58 375.48,590.72 375.49,590.93 375.31,591.22 374.94,591.58 376.87,592.56"/>
    </edge>
    <edge id=":10316028078_w0" function="walkingarea">
        <lane id=":10316028078_w0_0" index="0" allow="pedestrian" speed="2.78" length="11.82" width="2.00" shape="323.53,590.68 325.46,590.15 326.86,589.73 328.81,589.92 331.59,590.38 335.20,591.11 339.64,592.11 340.10,590.17 340.13,589.97 340.33,587.98 335.57,587.47 331.70,586.96 328.70,586.44 326.57,585.93 325.32,585.41 324.94,584.89 322.95,584.66 322.69,585.45 322.46,585.70 322.15,585.85 321.76,585.90 321.31,585.85 320.91,587.81 322.06,588.30 322.53,588.73 322.94,589.26 323.27,589.92"/>
    </edge>
    <edge id=":10316028079_w0" function="walkingarea">
        <lane id=":10316028079_w0_0" index="0" allow="pedestrian" speed="2.78" length="5.07" width="2.00" shape="313.77,586.34 314.17,584.38 312.14,583.61 311.29,583.11 310.75,582.66 310.70,582.37 311.29,582.35 308.72,583.44 309.06,584.15 309.03,584.44 308.87,584.67 308.59,584.86 308.17,585.01 308.65,586.95 310.53,586.40 311.20,586.21 311.88,586.13 312.69,586.16"/>
    </edge>
    <edge id=":10316028085_0" function="internal">
        <lane id=":10316028085_0_0" index="0" allow="pedestrian delivery bicycle" speed="3.74" length="2.21" shape="305.90,548.93 307.49,550.47"/>
    </edge>
    <edge id=":10316028085_1" function="internal">
        <lane id=":10316028085_1_0" index="0" allow="pedestrian delivery bicycle" speed="3.91" length="2.50" shape="307.51,547.27 308.18,547.37 308.67,547.66 308.98,548.14 309.10,548.81"/>
    </edge>
    <edge id=":10316028085_w0" function="walkingarea">
        <lane id=":10316028085_w0_0" index="0" allow="pedestrian" speed="2.78" length="2.57" width="6.40" shape="304.30,548.99 310.70,548.75 310.29,547.05 309.85,546.45 309.23,546.02 308.46,545.76 307.52,545.67 307.48,552.07"/>
    </edge>
    <edge id=":11203041629_w0" function="walkingarea">
        <lane id=":11203041629_w0_0" index="0" allow="pedestrian" speed="2.78" length="1.37" width="2.00" shape="439.85,623.42 440.62,621.57 439.56,621.36 439.11,621.46 438.71,621.68 438.36,622.04 438.06,622.53 439.85,623.42"/>
    </edge>
    <edge id=":11203052955_0" function="internal">
        <lane id=":11203052955_0_0" index="0" disallow="tram rail_urban rail rail_electric rail_fast ship container cable_car subway aircraft wheelchair scooter drone" speed="27.78" length="0.30" shape="564.11,512.80 563.82,512.70"/>
        <lane id=":11203052955_0_1" index="1" disallow="tram rail_urban rail rail_electric rail_fast ship container cable_car subway aircraft wheelchair scooter drone" speed="27.78" length="0.30" shape="565.21,509.80 564.94,509.70"/>
    </edge>
    <edge id=":11203052955_w0" function="walkingarea">
        <lane id=":11203052955_w0_0" index="0" allow="pedestrian" speed="2.78" length="0.30" width="3.20" shape="563.55,514.30 565.77,508.30 565.50,508.20 563.26,514.20"/>
    </edge>
    <edge id=":11203052956_0" function="internal">
        <lane id=":11203052956_0_0" index="0" disallow="tram rail_urban rail rail_electric rail_fast ship container cable_car subway aircraft wheelchair scooter drone" speed="27.78" length="0.29" shape="569.84,494.87 570.13,495.01"/>
        <lane id=":11203052956_0_1" index="1" disallow="tram rail_urban rail rail_electric rail_fast ship container cable_car subway aircraft wheelchair scooter drone" speed="27.78" length="0.29" shape="568.48,497.77 568.74,497.89"/>
        <lane id=":11203052956_0_2" index="2" disallow="tram rail_urban rail rail_electric rail_fast ship container cable_car subway aircraft wheelchair scooter drone" speed="27.78" length="0.29" shape="567.12,500.67 567.35,500.77"/>
    </edge>
    <edge id=":11203052956_w0" function="walkingarea">
        <lane id=":11203052956_w0_0" index="0" allow="pedestrian" speed="2.78" length="0.33" width="3.20" shape="566.65,502.22 570.83,493.57 570.51,493.42 566.44,502.11"/>
    </edge>
    <edge id=":11203052960_0" function="internal">
        <lane id=":11203052960_0_0" index="0" disallow="tram rail_urban rail rail_electric rail_fast ship container cable_car subway aircraft wheelchair scooter drone" speed="27.78" length="8.65" shape="526.52,471.85 533.61,476.78"/>
        <lane id=":11203052960_0_1" index="1" disallow="tram rail_urban rail rail_electric rail_fast ship container cable_car subway aircraft wheelchair scooter drone" speed="27.78" length="8.65" shape="524.69,474.47 531.79,479.41"/>
        <lane id=":11203052960_0_2" index="2" disallow="tram rail_urban rail rail_electric rail_fast ship container cable_car subway aircraft wheelchair scooter drone" speed="27.78" length="8.65" shape="522.86,477.10 529.96,482.04"/>
    </edge>
    <edge id=":11203052960_w0" function="walkingarea">
        <lane id=":11203052960_w0_0" index="0" allow="pedestrian" speed="2.78" length="9.29" width="3.20" shape="529.05,483.35 534.52,475.47 532.30,473.64 531.58,472.79 531.12,471.97 530.92,471.19 530.98,470.45 529.04,469.94 528.70,470.65 528.45,470.82 528.16,470.85 527.82,470.76 527.43,470.53 521.94,478.41 524.17,480.25 524.89,481.11 525.36,481.93 525.56,482.70 525.50,483.44 527.44,483.95 527.79,483.24 528.03,483.08 528.32,483.04 528.66,483.13"/>
    </edge>
    <edge id=":11203052961_0" function="internal">
        <lane id=":11203052961_0_0" index="0" disallow="tram rail_urban rail rail_electric rail_fast ship container cable_car subway aircraft wheelchair scooter drone" speed="27.78" length="1.21" shape="520.39,494.39 520.08,494.13 519.99,493.82 519.91,493.49 519.64,493.16"/>
        <lane id=":11203052961_0_1" index="1" disallow="tram rail_urban rail rail_electric rail_fast ship container cable_car subway aircraft wheelchair scooter drone" speed="27.78" length="1.21" shape="521.78,491.51 521.56,490.60"/>
    </edge>
    <edge id=":11203052961_w0" function="walkingarea">
        <lane id=":11203052961_w0_0" index="0" allow="pedestrian" speed="2.78" length="5.22" width="3.20" shape="525.16,498.46 527.93,492.69 526.62,491.78 526.22,491.24 525.99,490.64 525.93,489.99 526.04,489.28 524.10,488.77 523.76,489.47 523.52,489.63 523.23,489.66 522.90,489.55 522.52,489.32 518.68,494.44 521.49,498.75 523.43,499.26"/>
    </edge>
    <edge id=":11203052967_0" function="internal">
        <lane id=":11203052967_0_0" index="0" disallow="tram rail_urban rail rail_electric rail_fast ship container cable_car subway aircraft wheelchair scooter drone" speed="27.78" length="0.79" shape="558.73,510.80 559.46,511.08"/>
        <lane id=":11203052967_0_1" index="1" disallow="tram rail_urban rail rail_electric rail_fast ship container cable_car subway aircraft wheelchair scooter drone" speed="27.78" length="0.79" shape="559.85,507.80 560.59,508.09"/>
    </edge>
    <edge id=":11203052967_w0" function="walkingarea">
        <lane id=":11203052967_w0_0" index="0" allow="pedestrian" speed="2.78" length="0.78" width="3.20" shape="558.17,512.30 560.41,506.30 560.15,506.21 557.88,512.19"/>
    </edge>
    <edge id=":11203052968_0" function="internal">
        <lane id=":11203052968_0_0" index="0" disallow="tram rail_urban rail rail_electric rail_fast ship container cable_car subway aircraft wheelchair scooter drone" speed="27.78" length="0.26" shape="534.02,477.06 533.63,476.86"/>
        <lane id=":11203052968_0_1" index="1" disallow="tram rail_urban rail rail_electric rail_fast ship container cable_car subway aircraft wheelchair scooter drone" speed="27.78" length="0.26" shape="532.19,479.69 532.08,479.66"/>
        <lane id=":11203052968_0_2" index="2" disallow="tram rail_urban rail rail_electric rail_fast ship container cable_car subway aircraft wheelchair scooter drone" speed="27.78" length="0.26" shape="530.37,482.32 530.41,482.36 530.44,482.39 530.47,482.42 530.53,482.46"/>
    </edge>
    <edge id=":11203052968_w0" function="walkingarea">
        <lane id=":11203052968_w0_0" index="0" allow="pedestrian" speed="2.78" length="0.44" width="3.20" shape="530.28,484.15 534.93,475.75 529.45,483.64 529.75,483.84 529.86,483.91 529.96,483.97 530.10,484.05"/>
    </edge>
    <edge id=":11268210408_0" function="internal">
        <lane id=":11268210408_0_0" index="0" disallow="pedestrian tram rail_urban rail rail_electric rail_fast ship container cable_car subway aircraft wheelchair scooter drone" speed="6.48" length="4.96" shape="266.38,513.82 263.87,513.64 261.93,514.33 261.67,514.61"/>
    </edge>
    <edge id=":11268210408_1" function="internal">
        <lane id=":11268210408_1_0" index="0" disallow="pedestrian tram rail_urban rail rail_electric rail_fast ship container cable_car subway aircraft wheelchair scooter drone" speed="13.89" length="14.42" shape="266.38,513.82 252.29,510.70"/>
    </edge>
    <edge id=":11268210408_6" function="internal">
        <lane id=":11268210408_6_0" index="0" disallow="pedestrian tram rail_urban rail rail_electric rail_fast ship container cable_car subway aircraft wheelchair scooter drone" speed="6.48" length="4.26" shape="261.67,514.61 260.55,515.89 259.74,518.32"/>
    </edge>
    <edge id=":11268210408_2" function="internal">
        <lane id=":11268210408_2_0" index="0" disallow="pedestrian tram rail_urban rail rail_electric rail_fast ship container cable_car subway aircraft wheelchair scooter drone" speed="13.89" length="14.43" shape="252.99,507.57 267.07,510.70"/>
    </edge>
    <edge id=":11268210408_3" function="internal">
        <lane id=":11268210408_3_0" index="0" disallow="pedestrian tram rail_urban rail rail_electric rail_fast ship container cable_car subway aircraft wheelchair scooter drone" speed="8.16" length="3.97" shape="252.99,507.57 256.55,508.94 256.66,509.04"/>
    </edge>
    <edge id=":11268210408_7" function="internal">
        <lane id=":11268210408_7_0" index="0" disallow="pedestrian tram rail_urban rail rail_electric rail_fast ship container cable_car subway aircraft wheelchair scooter drone" speed="8.16" length="10.40" shape="256.66,509.04 258.87,511.19 259.93,514.32 259.74,518.32"/>
    </edge>
    <edge id=":11268210408_4" function="internal">
        <lane id=":11268210408_4_0" index="0" disallow="pedestrian tram rail_urban rail rail_electric rail_fast ship container cable_car subway aircraft wheelchair scooter drone" speed="6.72" length="9.41" shape="256.58,517.83 256.72,515.16 256.05,513.08 254.58,511.59 252.29,510.70"/>
    </edge>
    <edge id=":11268210408_5" function="internal">
        <lane id=":11268210408_5_0" index="0" disallow="pedestrian tram rail_urban rail rail_electric rail_fast ship container cable_car subway aircraft wheelchair scooter drone" speed="8.00" length="14.60" shape="256.58,517.83 257.86,513.98 260.03,511.50 263.10,510.41 267.07,510.70"/>
    </edge>
    <edge id=":11268210408_c0" function="crossing" crossingEdges="301285279#1 -301285279#1">
        <lane id=":11268210408_c0_0" index="0" allow="pedestrian" speed="2.78" length="6.40" width="4.00" shape="265.47,508.70 264.08,514.95" outlineShape="267.42,509.13 266.03,515.38 264.80,515.23 263.75,515.35 262.87,515.75 262.18,516.43 262.05,516.66 262.12,514.51 263.51,508.27 267.44,509.04 267.85,507.18 263.95,506.32"/>
    </edge>
    <edge id=":11268210408_c1" function="crossing" crossingEdges="-301285279#0 301285279#0">
        <lane id=":11268210408_c1_0" index="0" allow="pedestrian" speed="2.78" length="6.40" width="4.00" shape="253.90,512.69 255.28,506.44" outlineShape="251.93,512.36 253.33,506.01 257.24,506.87 255.12,516.44 255.15,516.17 255.03,514.99 254.65,514.01 254.01,513.23 253.11,512.64"/>
    </edge>
    <edge id=":11268210408_c2" function="crossing" crossingEdges="788296724#0 -788296724#0">
        <lane id=":11268210408_c2_0" index="0" allow="pedestrian" speed="2.78" length="6.40" width="4.00" shape="261.68,516.64 255.37,515.58" outlineShape="261.35,518.62 255.03,517.55 255.15,516.17 255.03,514.99 254.65,514.01 254.10,513.34 255.70,513.61 262.01,514.67 264.02,515.32 263.75,515.35 262.87,515.75 262.18,516.43 261.66,517.38"/>
    </edge>
    <edge id=":11268210408_w0" function="walkingarea">
        <lane id=":11268210408_w0_0" index="0" allow="pedestrian" speed="2.78" length="3.31" width="4.00" shape="261.33,518.54 263.30,518.90 265.60,517.33 266.03,515.38 264.80,515.23 263.75,515.35 262.87,515.75 262.18,516.43 261.66,517.38"/>
    </edge>
    <edge id=":11268210408_w1" function="walkingarea">
        <lane id=":11268210408_w1_0" index="0" allow="pedestrian" speed="2.78" length="9.04" width="4.00" shape="263.51,508.27 267.42,509.13 267.85,507.18 253.76,504.06 253.33,506.01 257.24,506.87"/>
    </edge>
    <edge id=":11268210408_w2" function="walkingarea">
        <lane id=":11268210408_w2_0" index="0" allow="pedestrian" speed="2.78" length="3.61" width="4.00" shape="251.95,512.26 251.52,514.21 253.03,517.26 254.99,517.62 255.15,516.17 255.03,514.99 254.65,514.01 254.01,513.23 253.11,512.64"/>
    </edge>
    <edge id=":11405756860_0" function="internal">
        <lane id=":11405756860_0_0" index="0" disallow="pedestrian tram rail_urban rail rail_electric rail_fast ship container cable_car subway aircraft wheelchair scooter drone" speed="13.89" length="5.01" shape="436.58,281.81 433.77,285.96"/>
    </edge>
    <edge id=":11405756860_1" function="internal">
        <lane id=":11405756860_1_0" index="0" disallow="pedestrian tram rail_urban rail rail_electric rail_fast ship container cable_car subway aircraft wheelchair scooter drone" speed="13.89" length="5.01" shape="431.12,284.16 433.93,280.02"/>
    </edge>
    <edge id=":11405756860_c0" function="crossing" crossingEdges="243542153#5 -243542153#5">
        <lane id=":11405756860_c0_0" index="0" allow="pedestrian" speed="2.78" length="6.40" width="4.00" shape="431.21,281.19 436.51,284.78" outlineShape="432.24,279.48 437.71,283.18 437.04,287.56 439.57,283.83 437.91,282.71 437.63,283.12 435.38,286.44 430.09,282.85"/>
    </edge>
    <edge id=":11405756860_w0" function="walkingarea">
        <lane id=":11405756860_w0_0" index="0" allow="pedestrian" speed="2.78" length="3.47" width="4.00" shape="435.09,286.86 436.75,287.98 439.57,283.83 437.91,282.71 437.63,283.12 435.38,286.44"/>
    </edge>
    <edge id=":11405756860_w1" function="walkingarea">
        <lane id=":11405756860_w1_0" index="0" allow="pedestrian" speed="2.78" length="3.50" width="4.00" shape="430.09,282.85 432.33,279.54 432.61,279.12 430.95,278.00 428.89,278.38 427.73,280.01 428.15,282.14 429.80,283.26"/>
    </edge>
    <edge id=":11405756864_0" function="internal">
        <lane id=":11405756864_0_0" index="0" disallow="pedestrian tram rail_urban rail rail_electric rail_fast ship container cable_car subway aircraft wheelchair scooter drone" speed="13.89" length="5.38" shape="368.03,206.37 363.29,203.82"/>
    </edge>
    <edge id=":11405756864_1" function="internal">
        <lane id=":11405756864_1_0" index="0" disallow="pedestrian tram rail_urban rail rail_electric rail_fast ship container cable_car subway aircraft wheelchair scooter drone" speed="13.89" length="5.38" shape="364.81,201.00 369.55,203.55"/>
    </edge>
    <edge id=":11405756864_c0" function="crossing" crossingEdges="315658897#4 -315658897#4">
        <lane id=":11405756864_c0_0" index="0" allow="pedestrian" speed="2.78" length="6.40" width="4.00" shape="367.93,200.87 364.91,206.50" outlineShape="369.74,201.72 366.62,207.54 363.14,205.56 366.17,199.92 369.70,201.81 370.30,202.14 371.25,200.38 366.51,197.83 365.57,199.59 366.17,199.92"/>
    </edge>
    <edge id=":11405756864_w0" function="walkingarea">
        <lane id=":11405756864_w0_0" index="0" allow="pedestrian" speed="2.78" length="3.85" width="4.00" shape="362.54,205.23 361.59,206.99 363.08,210.43 365.08,210.38 366.33,209.54 367.28,207.78 366.67,207.45 363.14,205.56"/>
    </edge>
    <edge id=":11405756864_w1" function="walkingarea">
        <lane id=":11405756864_w1_0" index="0" allow="pedestrian" speed="2.78" length="3.71" width="4.00" shape="366.17,199.92 369.70,201.81 370.30,202.14 371.25,200.38 366.51,197.83 365.57,199.59"/>
    </edge>
    <edge id=":11405756867_w0" function="walkingarea">
        <lane id=":11405756867_w0_0" index="0" allow="pedestrian" speed="2.78" length="4.03" width="2.00" shape="368.99,230.87 369.47,228.92 368.60,228.51 368.24,228.18 367.94,227.75 367.68,227.24 367.48,226.65 365.55,227.17 365.61,228.01 365.48,228.33 365.25,228.59 364.92,228.78 364.48,228.90 364.85,230.87 366.38,230.59 366.93,230.54 367.48,230.56 368.13,230.67"/>
    </edge>
    <edge id=":11405764669_w0" function="walkingarea">
        <lane id=":11405764669_w0_0" index="0" allow="pedestrian" speed="2.78" length="4.08" width="2.00" shape="373.77,244.23 375.73,243.87 374.69,238.87 372.74,239.33 372.76,240.19 372.60,240.55 372.34,240.85 371.96,241.09 371.48,241.28 372.06,243.19 372.89,243.11 373.21,243.23 373.46,243.46 373.64,243.79"/>
    </edge>
    <edge id=":11405764674_w0" function="walkingarea">
        <lane id=":11405764674_w0_0" index="0" allow="pedestrian" speed="2.78" length="3.20" width="6.40" shape="327.55,223.29 324.36,223.55 330.74,223.03 327.55,223.29"/>
    </edge>
    <edge id=":11405764676_0" function="internal">
        <lane id=":11405764676_0_0" index="0" allow="delivery bicycle" speed="5.72" length="6.71" shape="308.20,220.28 305.95,220.42 304.33,220.95 303.33,221.89 302.97,223.23"/>
    </edge>
    <edge id=":11405764676_1" function="internal">
        <lane id=":11405764676_1_0" index="0" allow="delivery bicycle" speed="7.35" length="11.85" shape="308.20,220.28 304.57,219.79 302.00,218.54 300.50,216.52 300.07,213.73"/>
    </edge>
    <edge id=":11405764676_2" function="internal">
        <lane id=":11405764676_2_0" index="0" allow="delivery bicycle" speed="5.70" length="6.70" shape="303.27,213.83 303.54,215.21 304.47,216.20 306.05,216.83 308.28,217.08"/>
    </edge>
    <edge id=":11405764676_3" function="internal">
        <lane id=":11405764676_3_0" index="0" disallow="pedestrian tram rail_urban rail rail_electric rail_fast ship container cable_car subway aircraft wheelchair scooter drone" speed="13.89" length="9.40" shape="303.27,213.83 302.97,223.23"/>
    </edge>
    <edge id=":11405764676_4" function="internal">
        <lane id=":11405764676_4_0" index="0" disallow="pedestrian tram rail_urban rail rail_electric rail_fast ship container cable_car subway aircraft wheelchair scooter drone" speed="13.89" length="9.40" shape="299.77,223.12 300.07,213.73"/>
    </edge>
    <edge id=":11405764676_5" function="internal">
        <lane id=":11405764676_5_0" index="0" allow="delivery bicycle" speed="7.37" length="2.95" shape="299.77,223.12 300.38,220.40 300.48,220.28"/>
    </edge>
    <edge id=":11405764676_6" function="internal">
        <lane id=":11405764676_6_0" index="0" allow="delivery bicycle" speed="7.37" length="8.86" shape="300.48,220.28 302.00,218.49 304.63,217.38 308.28,217.08"/>
    </edge>
    <edge id=":11405764676_c0" function="crossing" crossingEdges="315658899#1 -315658899#1">
        <lane id=":11405764676_c0_0" index="0" allow="pedestrian" speed="2.78" length="6.40" width="4.00" shape="298.41,215.68 304.80,215.88" outlineShape="298.47,213.68 304.87,213.88 304.97,213.89 304.87,213.88 304.74,217.88 298.34,217.68 298.47,213.68 298.37,213.68"/>
    </edge>
    <edge id=":11405764676_w0" function="walkingarea">
        <lane id=":11405764676_w0_0" index="0" allow="pedestrian" speed="2.78" length="5.31" width="4.00" shape="304.57,223.28 306.57,223.34 308.15,221.88 308.24,218.68 308.32,215.48 306.87,213.95 304.87,213.88 304.74,217.88"/>
    </edge>
    <edge id=":11405764676_w1" function="walkingarea">
        <lane id=":11405764676_w1_0" index="0" allow="pedestrian" speed="2.78" length="6.36" width="4.00" shape="298.34,217.68 298.47,213.68 296.47,213.62 296.17,223.01 298.17,223.07"/>
    </edge>
    <edge id=":11405764681_0" function="internal">
        <lane id=":11405764681_0_0" index="0" disallow="pedestrian tram rail_urban rail rail_electric rail_fast ship container cable_car subway aircraft wheelchair scooter drone" speed="13.89" length="6.19" shape="362.51,203.40 357.06,200.47"/>
    </edge>
    <edge id=":11405764681_1" function="internal">
        <lane id=":11405764681_1_0" index="0" disallow="pedestrian tram rail_urban rail rail_electric rail_fast ship container cable_car subway aircraft wheelchair scooter drone" speed="13.89" length="6.19" shape="358.57,197.65 364.02,200.58"/>
    </edge>
    <edge id=":11405764681_c0" function="crossing" crossingEdges="315658897#3 -315658897#3">
        <lane id=":11405764681_c0_0" index="0" allow="pedestrian" speed="2.78" length="6.40" width="4.00" shape="362.06,197.71 359.03,203.35" outlineShape="363.86,198.57 360.74,204.38 356.32,204.16 360.81,206.57 361.75,204.81 360.79,204.29 357.26,202.40 360.29,196.76"/>
    </edge>
    <edge id=":11405764681_w0" function="walkingarea">
        <lane id=":11405764681_w0_0" index="0" allow="pedestrian" speed="2.78" length="4.23" width="4.00" shape="356.30,201.88 355.35,203.64 360.81,206.57 361.75,204.81 360.79,204.29 357.26,202.40"/>
    </edge>
    <edge id=":11405764681_w1" function="walkingarea">