<?xml version="1.0" encoding="UTF-8"?>

<!-- generated on 2026-04-15 00:23:57.155512 by Eclipse SUMO randomTrips.py v1.26.0
<configuration>
    <net-file value="/Users/junlee/Desktop/2026-1/js/result/2026-04-15_00-06-49/sumo_nets/cw_21869/network.net.xml"/>
    <output-trip-file value="/Users/junlee/Desktop/2026-1/js/result/2026-04-15_00-06-49/sumo_nets/cw_21869/routes_seed42.trips.xml"/>
    <route-file value="/Users/junlee/Desktop/2026-1/js/result/2026-04-15_00-06-49/sumo_nets/cw_21869/routes_seed42.rou.xml"/>
    <vehicle-class value="passenger"/>
    <end value="1800.0"/>
    <period value="5.899086348664728"/>
</configuration>
-->

<!-- generated on 2026-04-15T00:23:57.135569+09:00 by Eclipse SUMO duarouter 1.26.0
<duarouterConfiguration xmlns:xsi="http://www.w3.org/2001/XMLSchema-instance" xsi:noNamespaceSchemaLocation="http://sumo.dlr.de/xsd/duarouterConfiguration.xsd">

    <input>
        <net-file value="/Users/junlee/Desktop/2026-1/js/result/2026-04-15_00-06-49/sumo_nets/cw_21869/network.net.xml"/>
        <route-files value="/Users/junlee/Desktop/2026-1/js/result/2026-04-15_00-06-49/sumo_nets/cw_21869/routes_seed42.trips.xml"/>
    </input>

    <output>
        <output-file value="/Users/junlee/Desktop/2026-1/js/result/2026-04-15_00-06-49/sumo_nets/cw_21869/routes_seed42.rou.xml"/>
        <alternatives-output value="NUL"/>
    </output>

    <time>
        <begin value="0.0"/>
        <end value="1800.0"/>
    </time>

    <report>
        <no-warnings value="true"/>
        <ignore-errors value="true"/>
        <no-step-log value="true"/>
    </report>

</duarouterConfiguration>
-->

<routes xmlns:xsi="http://www.w3.org/2001/XMLSchema-instance" xsi:noNamespaceSchemaLocation="http://sumo.dlr.de/xsd/routes_file.xsd">
    <vType id="passenger" vClass="passenger"/>
    <vehicle id="0" type="passenger" depart="0.00">
        <route edges="301285279#1 301285279#2 788296725 913406478 781983104#0 382947009 301285279#0 788296724#0 -333972428#1 -333972428#0 1312934686 -183272462#2 -183272462#1"/>
    </vehicle>
    <vehicle id="1" type="passenger" depart="5.90">
        <route edges="-383097712#1 -383097714 383097722#0 781985788#0 781985788#2 218915135#0 218915135#1 218915135#2 218915135#3-AddedOnRampEdge 218915135#3 218915135#4 243542153#1 243542153#2 243542153#4 243542153#5 243542153#6 243542154#5 -318747850"/>
    </vehicle>
    <vehicle id="2" type="passenger" depart="11.80">
        <route edges="333972428#1 -788296724#0 301285279#1 301285279#2 788296725 913406478 315658899#0 315658899#1 315658897#2"/>
    </vehicle>
    <vehicle id="3" type="passenger" depart="17.70">
        <route edges="781985789#0 781985789#1 218915135#2 218915135#3-AddedOnRampEdge 218915135#3 218915135#4 243542153#1 243542153#2 243542153#4 243542153#5 243542153#6 -243542154#2 -243542154#1"/>
    </vehicle>
    <vehicle id="4" type="passenger" depart="23.60">
        <route edges="1465558148 921258631 -781985788#2 -781985788#0 -383097722#0 383097714 383097712#1 183272462#0 -581906883#1 -581906883#0 -301285279#2 -301285279#1 788296724#0 -333972428#1 -333972428#0 1312934686 -183272462#2 -183272462#1"/>
    </vehicle>
    <vehicle id="5" type="passenger" depart="29.50">
        <route edges="-315658897#4 -315658897#3 -315658897#2 -315658899#1 -315658899#0 921117704#0 921117704#1 1467498054 1467498055#0 1467498055#1 1467498055#2 921258631 -781985788#2 -781985788#0 -383097722#0 383097714 383097712#1 183272462#0 183272462#1 183272462#2 -1312934686 333972428#0 228797640#1"/>
    </vehicle>
    <vehicle id="6" type="passenger" depart="35.39">
        <route edges="-183272462#1 -581906883#1 -581906883#0 788296725 913406478 243542153#1 243542153#2 243542153#4 243542153#5 -315658897#4"/>
    </vehicle>
    <vehicle id="7" type="passenger" depart="41.29">
        <route edges="301285279#2 788296725 913406478 243542153#1 243542153#2 243542153#4 243542153#5 243542153#6"/>
    </vehicle>
    <vehicle id="8" type="passenger" depart="47.19">
        <route edges="-315658899#0 243542153#1 243542153#2 243542153#4 243542153#5 243542153#6 243542155#0"/>
    </vehicle>
    <vehicle id="9" type="passenger" depart="53.09">
        <route edges="781983103#0 781983103#1 781983103#2 921117704#0 921117704#1 1467498054 1467498055#0 1467498055#1 1467498055#2 921258631 -781985788#2 -781985788#0 -383097722#0 383097714 383097712#1 183272462#0 183272462#1 183272462#2 -1312934686"/>
    </vehicle>
    <vehicle id="10" type="passenger" depart="58.99">
        <route edges="781983103#0 781983103#1 781983103#2 315658899#0"/>
    </vehicle>
    <vehicle id="11" type="passenger" depart="64.89">
        <route edges="-788296724#0 301285279#1 301285279#2 788296725 913406478 315658899#0 315658899#1 -315658897#1 -315658896#1 -315658896#0"/>
    </vehicle>
    <vehicle id="12" type="passenger" depart="70.79">
        <route edges="921117704#0 921117704#1 1467498054 1467498055#0 1467498055#1 1467498055#2 921258631 -781985788#2 -781985788#0 -383097722#0 383097714 383097712#1 383097727#1 -383097714 383097722#0 781985788#0 781985788#2 -921258631"/>
    </vehicle>
    <vehicle id="13" type="passenger" depart="76.69">
        <route edges="-243542154#2"/>
    </vehicle>
    <vehicle id="14" type="passenger" depart="82.59">
        <route edges="781985787#0 781985787#1 781985787#2 781985787#3 218915135#0 218915135#1 218915135#2 218915135#3-AddedOnRampEdge 218915135#3 218915135#4 243542153#1 243542153#2 243542157 -464461055 243542156#1"/>
    </vehicle>
    <vehicle id="15" type="passenger" depart="88.49">
        <route edges="781983103#0 781983103#1 781983103#2 921117704#0 921117704#1 1467498054 1467498055#0 1467498055#1 1467498055#2 921258631 -781985788#2 -781985788#0 -383097722#0 383097714 383097712#1 183272462#0 183272462#1 183272462#2 -1312934686 333972428#0 333972428#1"/>
    </vehicle>
    <vehicle id="16" type="passenger" depart="94.39">
        <route edges="218915135#4 243542153#1 243542153#2 243542157 -243542154#0 921117704#1 1467498054 1467498055#0 1467498055#1 1467498055#2 921258631"/>
    </vehicle>
    <vehicle id="17" type="passenger" depart="100.28">
        <route edges="-955312948 955312947#1 781983103#2 921117704#0 243542154#0"/>
    </vehicle>
    <vehicle id="18" type="passenger" depart="106.18">
        <route edges="781983104#0 382947009 301285279#0 788296724#0 -333972428#1 -333972428#0 1312934686 -183272462#2 -183272462#1 -183272462#0 383097727#1 -383097714 301285277#1"/>
    </vehicle>
    <vehicle id="19" type="passenger" depart="112.08">
        <route edges="781985787#2 781985787#3 218915135#0 218915135#1 218915135#2 218915135#3-AddedOnRampEdge 218915135#3 218915135#4 243542153#1 243542153#2 243542153#4 243542153#5 243542153#6 243542154#5"/>
    </vehicle>
    <vehicle id="20" type="passenger" depart="117.98">
        <route edges="315658899#0 315658899#1 315658897#2 315658897#3 315658897#4 -243542153#5 -243542153#4 -243542153#2"/>
    </vehicle>
    <vehicle id="21" type="passenger" depart="123.88">
        <route edges="-315658899#1 -315658899#0 921117704#0 921117704#1 1467498054 1467498055#0 1467498055#1 1467498055#2 921258631 -781985788#2 -781985788#0 -383097722#0 383097714 383097712#1 183272462#0 -581906883#1 -581906883#0"/>
    </vehicle>
    <vehicle id="22" type="passenger" depart="129.78">
        <route edges="-243542154#0 921117704#1 1467498054 1467498056 218915135#3-AddedOnRampEdge 218915135#3 218915135#4 781983104#0 382947009 301285279#0 788296724#0 -333972428#1 -333972428#0"/>
    </vehicle>
    <vehicle id="23" type="passenger" depart="135.68">
        <route edges="-243542154#5 -243542154#2 -243542154#1 -464461055"/>
    </vehicle>
    <vehicle id="24" type="passenger" depart="141.58">
        <route edges="-955312947#1 -955312947#0 315658896#1 315658897#1 -315658899#1 -315658899#0"/>
    </vehicle>
    <vehicle id="25" type="passenger" depart="147.48">
        <route edges="301285279#2 788296725 913406478 921117704#0 243542154#0 -464461055 243542156#1"/>
    </vehicle>
    <vehicle id="26" type="passenger" depart="153.38">
        <route edges="-301285279#2 -301285279#1 788296724#0 -333972428#1 -333972428#0 1312934686 -183272462#2 -183272462#1 -183272462#0 383097727#1 -383097714 301285277#1 581906883#1 183272462#1 183272462#2 -1312934686 333972428#0 333972428#1"/>
    </vehicle>
    <vehicle id="27" type="passenger" depart="159.28">
        <route edges="-301285279#1 788296724#0 -333972428#1 -333972428#0 1312934686 -183272462#2 -183272462#1 -183272462#0 383097727#1 -383097714 383097722#0 781985788#0 781985788#2 -921258631 -1465558148 1465558146#0"/>
    </vehicle>
    <vehicle id="28" type="passenger" depart="165.17">
        <route edges="955312947#1 781983103#2 921117704#0 921117704#1 1467498054 1467498056 218915135#3-AddedOnRampEdge 218915135#3 218915135#4 781983104#0 382947009 301285279#0 301285279#1"/>
    </vehicle>
    <vehicle id="29" type="passenger" depart="171.07">
        <route edges="243542153#4 243542153#5 243542153#6 -243542154#2 -243542154#1 -243542157 -243542153#2 -243542153#1 315658899#0 315658899#1 315658897#2 315658897#3"/>
    </vehicle>
    <vehicle id="30" type="passenger" depart="176.97">
        <route edges="781985787#0 781985787#1 781985787#2 781985787#3 -921258631 -1465558148 1465558146#0 1465558146#1 383097723"/>
    </vehicle>
    <vehicle id="31" type="passenger" depart="182.87">
        <route edges="-315658899#1 -315658899#0 781983104#0 382947009 301285279#0 788296724#0 -333972428#1 -333972428#0 1312934686 -183272462#2"/>
    </vehicle>
    <vehicle id="32" type="passenger" depart="188.77">
        <route edges="-581906883#1 -581906883#0 788296725 913406478 921117704#0 921117704#1 1467498054 1467498055#0 1467498055#1 1467498055#2 921258631 -781985788#2 -781985788#0 -383097722#0"/>
    </vehicle>
    <vehicle id="33" type="passenger" depart="194.67">
        <route edges="-315658897#3 -315658897#2 -315658899#1 -315658899#0 781983104#0 382947009 301285279#0 301285279#1 301285279#2 788296725 913406478"/>
    </vehicle>
    <vehicle id="34" type="passenger" depart="200.57">
        <route edges="781985788#0 781985788#2 218915135#0 218915135#1 218915135#2 218915135#3-AddedOnRampEdge 218915135#3 913405361 -788296725 581906883#0 581906883#1 183272462#1 183272462#2 -1312934686 333972428#0 333972428#1 -788296723#0"/>
    </vehicle>
    <vehicle id="35" type="passenger" depart="206.47">
        <route edges="788296724#0 -333972428#1 -333972428#0 1312934686 -183272462#2 -183272462#1 -183272462#0 383097727#1 -383097714 383097722#0 781985788#0 781985788#2 218915135#0"/>
    </vehicle>
    <vehicle id="36" type="passenger" depart="212.37">
        <route edges="-333972428#3 -788296724#0 -301285279#0 -382947009"/>
    </vehicle>
    <vehicle id="37" type="passenger" depart="218.27">
        <route edges="243542153#5 243542153#6 -243542154#2 -243542154#1 -243542154#0 921117704#1 1467498054 1467498055#0 1467498055#1 1467498055#2 921258631 -781985788#2 -781985788#0 -383097722#0 383097714 383097712#1 383097727#1 -383097714"/>
    </vehicle>
    <vehicle id="38" type="passenger" depart="224.17">
        <route edges="243542154#1 464461055 -243542154#0 921117704#1 1467498054 1467498055#0 1467498055#1 1467498055#2 921258631 -781985788#2 -781985788#0 781985789#0"/>
    </vehicle>
    <vehicle id="39" type="passenger" depart="230.06">
        <route edges="955312948 781983103#1 781983103#2 921117704#0 921117704#1 1467498054 1467498055#0 1467498055#1 1467498055#2 921258631 -781985788#2 -781985788#0 -383097722#0 383097714 383097712#1 183272462#0 183272462#1 183272462#2 -1312934686 333972428#0 228797640#1"/>
    </vehicle>
    <vehicle id="40" type="passenger" depart="235.96">
        <route edges="-243542154#2 -243542154#1 -243542157 -243542153#2"/>
    </vehicle>
    <vehicle id="41" type="passenger" depart="241.86">
        <route edges="-243542154#6 -243542154#5 -243542153#6 -243542153#5 -243542153#4 -243542153#2 -243542153#1 781983104#0 382947009 301285279#0"/>
    </vehicle>
    <vehicle id="42" type="passenger" depart="247.76">
        <route edges="581906883#0 581906883#1 -183272462#0 383097727#1 -383097714 301285277#1 -581906883#0 788296725 913406478 921117704#0 921117704#1 1467498054 1467498055#0 1467498055#1 1467498055#2"/>
    </vehicle>
    <vehicle id="43" type="passenger" depart="253.66">
        <route edges="-243542153#5 -243542153#4 -243542153#2 -243542153#1 921117704#0 921117704#1 1467498054 1467498055#0 1467498055#1 1467498055#2 -1465558148 1465558146#0"/>
    </vehicle>
    <vehicle id="44" type="passenger" depart="259.56">
        <route edges="955312948 781983103#1 781983103#2 243542153#1 243542153#2 243542153#4"/>
    </vehicle>
    <vehicle id="45" type="passenger" depart="265.46">
        <route edges="315658897#1 -315658899#1 -315658899#0 243542153#1 243542153#2 243542153#4 243542153#5"/>
    </vehicle>
    <vehicle id="46" type="passenger" depart="271.36">
        <route edges="-243542154#6 -243542154#5 -243542154#2 -243542154#1 -243542154#0 921117704#1 1467498054 1467498056"/>
    </vehicle>
    <vehicle id="47" type="passenger" depart="277.26">
        <route edges="1467498055#2 921258631 -781985788#2 -781985788#0 -383097722#0 383097714 383097712#1 183272462#0 -581906883#1 -581906883#0 788296725 913406478 921117704#0 921117704#1 913428734"/>
    </vehicle>
    <vehicle id="48" type="passenger" depart="283.16">
        <route edges="781985788#0 781985788#2 218915135#0 218915135#1 218915135#2 218915135#3-AddedOnRampEdge 218915135#3 913405361 -788296725 581906883#0 581906883#1 -183272462#0 383097727#1 -383097714"/>
    </vehicle>
    <vehicle id="49" type="passenger" depart="289.06">
        <route edges="218915135#1 218915135#2 218915135#3-AddedOnRampEdge 218915135#3 218915135#4 315658899#0 315658899#1 -315658897#1"/>
    </vehicle>
    <vehicle id="50" type="passenger" depart="294.95">
        <route edges="-464461055 243542154#2 -243542153#6 -243542153#5 -243542153#4 -243542153#2 -243542153#1 781983104#0 382947009 301285279#0 301285279#1"/>
    </vehicle>
    <vehicle id="51" type="passenger" depart="300.85">
        <route edges="243542155#0 318747850 -243542154#5 -243542153#6 -315658897#4 -315658897#3 -315658897#2 -315658897#1 -315658896#1 -315658896#0"/>
    </vehicle>
    <vehicle id="52" type="passenger" depart="306.75">
        <route edges="383097714 383097712#1 183272462#0 -581906883#1 -581906883#0 788296725 913406478 243542153#1 243542153#2 243542153#4 243542153#5"/>
    </vehicle>
    <vehicle id="53" type="passenger" depart="312.65">
        <route edges="383097727#1 -383097714 383097722#0 781985788#0 781985788#2 218915135#0 218915135#1 218915135#2 218915135#3-AddedOnRampEdge 218915135#3 218915135#4 243542153#1 243542153#2 243542153#4"/>
    </vehicle>
    <vehicle id="54" type="passenger" depart="318.55">
        <route edges="-1312934686 333972428#0 333972428#1 -788296724#0"/>
    </vehicle>
    <vehicle id="55" type="passenger" depart="324.45">
        <route edges="781985788#0 781985788#2 218915135#0 218915135#1 218915135#2 218915135#3-AddedOnRampEdge 218915135#3 218915135#4 781983104#0"/>
    </vehicle>
    <vehicle id="56" type="passenger" depart="330.35">
        <route edges="-581906883#0 788296725 913406478 921117704#0 243542154#0 243542154#1 243542154#2 -243542153#6 -243542153#5 -243542153#4"/>
    </vehicle>
    <vehicle id="57" type="passenger" depart="336.25">
        <route edges="781985788#0 781985788#2 218915135#0 218915135#1 218915135#2 218915135#3-AddedOnRampEdge 218915135#3 218915135#4 243542153#1 243542153#2 243542157 -243542154#0 921117704#1 913428734"/>
    </vehicle>
    <vehicle id="58" type="passenger" depart="342.15">
        <route edges="-243542154#1 -243542154#0 921117704#1 1467498054 1467498056 218915135#3-AddedOnRampEdge 218915135#3"/>
    </vehicle>
    <vehicle id="59" type="passenger" depart="348.05">
        <route edges="-243542153#6 -243542153#5 -243542153#4 -243542153#2 -243542153#1 921117704#0 921117704#1 1467498054 1467498055#0 1467498055#1 1467498055#2 921258631 -781985788#2 -781985788#0 -383097722#0 383097714"/>
    </vehicle>
    <vehicle id="60" type="passenger" depart="353.95">
        <route edges="383097722#0 781985788#0 781985788#2 218915135#0 218915135#1 218915135#2 218915135#3-AddedOnRampEdge 218915135#3 913405361 -788296725 581906883#0 -301285277#1"/>
    </vehicle>
    <vehicle id="61" type="passenger" depart="359.84">
        <route edges="183272462#1 183272462#2 -1312934686 333972428#0 333972428#1 -788296724#0 301285279#1 301285279#2 788296725 913406478 921117704#0 243542154#0"/>
    </vehicle>
    <vehicle id="62" type="passenger" depart="365.74">
        <route edges="1465558148 921258631 218915135#0 218915135#1 218915135#2 218915135#3-AddedOnRampEdge 218915135#3 218915135#4 243542153#1 243542153#2 243542153#4 243542153#5 -315658897#4 -315658897#3 -315658897#2 -315658899#1 -315658899#0"/>
    </vehicle>
    <vehicle id="63" type="passenger" depart="371.64">
        <route edges="243542153#1 243542153#2 243542157 -243542154#0 921117704#1 1467498054 1467498055#0 1467498055#1 1467498055#2 921258631 -781985788#2 -781985788#0 -383097722#0 383097714 383097712#1 183272462#0 183272462#1 183272462#2 -1312934686 333972428#0 333972428#1"/>
    </vehicle>
    <vehicle id="64" type="passenger" depart="377.54">
        <route edges="-315658897#2 -315658899#1 -315658899#0 921117704#0 921117704#1 1467498054 1467498055#0 1467498055#1 1467498055#2 921258631 -781985788#2"/>
    </vehicle>
    <vehicle id="65" type="passenger" depart="383.44">
        <route edges="955312948 781983103#1 -955312947#1 -955312947#0 315658896#1"/>
    </vehicle>
    <vehicle id="66" type="passenger" depart="389.34">
        <route edges="1467498055#0 1467498055#1 1467498055#2 921258631 218915135#0 218915135#1 218915135#2 218915135#3-AddedOnRampEdge 218915135#3 218915135#4 243542153#1"/>
    </vehicle>
    <vehicle id="67" type="passenger" depart="395.24">
        <route edges="-243542155#0 243542154#5 -318747850"/>
    </vehicle>
    <vehicle id="68" type="passenger" depart="401.14">
        <route edges="-788296724#0 301285279#1 301285279#2 788296725 913406478 243542153#1 243542153#2 243542153#4 243542153#5 243542153#6 243542155#0"/>
    </vehicle>
    <vehicle id="69" type="passenger" depart="407.04">
        <route edges="-315658899#1"/>
    </vehicle>
    <vehicle id="70" type="passenger" depart="412.94">
        <route edges="-243542153#6 -243542153#5 -243542153#4 -243542153#2 -243542153#1 781983104#0 382947009 301285279#0"/>
    </vehicle>
    <vehicle id="71" type="passenger" depart="418.84">
        <route edges="-315658899#1 -315658899#0 921117704#0 921117704#1 1467498054 1467498055#0 1467498055#1 1467498055#2 921258631 -781985788#2 -781985788#0 781985789#0 781985789#1"/>
    </vehicle>
    <vehicle id="72" type="passenger" depart="424.73">
        <route edges="781985787#2 781985787#3 218915135#0 218915135#1 218915135#2 218915135#3-AddedOnRampEdge 218915135#3 218915135#4 243542153#1 243542153#2 243542157 243542154#1 243542154#2 -243542153#6"/>
    </vehicle>
    <vehicle id="73" type="passenger" depart="430.63">
        <route edges="-318747850 -243542155#0 -243542153#6 -315658897#4 -315658897#3 -315658897#2 -315658897#1 -315658896#1 955312947#0 955312948 781983103#1 -955312947#1 -955312947#0 315658896#1 315658897#1"/>
    </vehicle>
    <vehicle id="74" type="passenger" depart="436.53">
        <route edges="-315658897#4 -315658897#3 -315658897#2 -315658899#1 -315658899#0 921117704#0 921117704#1 1467498054 1467498056 218915135#3-AddedOnRampEdge 218915135#3 913405361 -788296725 -301285279#2 -301285279#1 -301285279#0"/>
    </vehicle>
    <vehicle id="75" type="passenger" depart="442.43">
        <route edges="913405361 -788296725 581906883#0 581906883#1 -183272462#0 383097727#1 -383097714 383097722#0 781985788#0 781985788#2 218915135#0 218915135#1 218915135#2 218915135#3-AddedOnRampEdge 218915135#3 218915135#4 243542153#1 243542153#2 243542157 243542154#1 243542154#2"/>
    </vehicle>
    <vehicle id="76" type="passenger" depart="448.33">
        <route edges="183272462#1 183272462#2 -1312934686 333972428#0 333972428#1 -788296724#0 301285279#1 301285279#2 581906883#0 581906883#1 -183272462#0 383097727#1"/>
    </vehicle>
    <vehicle id="77" type="passenger" depart="454.23">
        <route edges="781983103#0 781983103#1 781983103#2 243542153#1 243542153#2 243542153#4 243542153#5 -315658897#4 -315658897#3 -315658897#2"/>
    </vehicle>
    <vehicle id="78" type="passenger" depart="460.13">
        <route edges="-243542154#2 -243542154#1 -243542154#0 921117704#1 1467498054 1467498056"/>
    </vehicle>
    <vehicle id="79" type="passenger" depart="466.03">
        <route edges="1465558148 921258631 218915135#0 218915135#1"/>
    </vehicle>
    <vehicle id="80" type="passenger" depart="471.93">
        <route edges="333972428#0 333972428#1 -788296724#0 301285279#1 301285279#2 788296725 913406478 315658899#0 315658899#1 315658897#2"/>
    </vehicle>
    <vehicle id="81" type="passenger" depart="477.83">
        <route edges="955312947#0 955312947#1 781983103#2 243542153#1 243542153#2 243542153#4 243542153#5 243542153#6 -243542154#2"/>
    </vehicle>
    <vehicle id="82" type="passenger" depart="483.73">
        <route edges="781985787#2 781985787#3 218915135#0 218915135#1 218915135#2 218915135#3-AddedOnRampEdge 218915135#3 913405361 -788296725 -301285279#2 -301285279#1 -301285279#0 -382947009"/>
    </vehicle>
    <vehicle id="83" type="passenger" depart="489.62">
        <route edges="-315658897#1 -315658896#1 955312947#0 955312947#1 781983103#2 921117704#0 921117704#1 1467498054 1467498055#0 1467498055#1 1467498055#2 921258631 -781985788#2 -781985788#0 -383097722#0 383097714 383097712#1 183272462#0 183272462#1"/>
    </vehicle>
    <vehicle id="84" type="passenger" depart="495.52">
        <route edges="1465558148 921258631 218915135#0 218915135#1 218915135#2 218915135#3-AddedOnRampEdge 218915135#3 218915135#4 243542153#1 243542153#2 243542157 -464461055"/>
    </vehicle>
    <vehicle id="85" type="passenger" depart="501.42">
        <route edges="-333972428#0 1312934686 -183272462#2 -183272462#1 -581906883#1 -581906883#0 788296725"/>
    </vehicle>
    <vehicle id="86" type="passenger" depart="507.32">
        <route edges="243542153#2 243542153#4 243542153#5 243542153#6 -243542154#2 -243542154#1 -243542157 -243542153#2"/>
    </vehicle>
    <vehicle id="87" type="passenger" depart="513.22">
        <route edges="955312948 781983103#1 781983103#2 921117704#0 921117704#1 1467498054 1467498056 218915135#3-AddedOnRampEdge 218915135#3 218915135#4 781983104#0 781983104#1"/>
    </vehicle>
    <vehicle id="88" type="passenger" depart="519.12">
        <route edges="781985787#1 781985787#2 781985787#3 218915135#0 218915135#1 218915135#2 218915135#3-AddedOnRampEdge 218915135#3 218915135#4 315658899#0 315658899#1 -315658897#1 -315658896#1"/>
    </vehicle>
    <vehicle id="89" type="passenger" depart="525.02">
        <route edges="198691065 301285277#1 -581906883#0 788296725 913406478 243542153#1 243542153#2 243542153#4 243542153#5 -315658897#4 -315658897#3 -315658897#2 -315658899#1"/>
    </vehicle>
    <vehicle id="90" type="passenger" depart="530.92">
        <route edges="1312934686 -183272462#2 -183272462#1 -581906883#1 -581906883#0 788296725 913406478 315658899#0 315658899#1 -315658897#1 -315658896#1 955312947#0 955312947#1"/>
    </vehicle>
    <vehicle id="91" type="passenger" depart="536.82">
        <route edges="1467498056 218915135#3-AddedOnRampEdge 218915135#3 218915135#4 243542153#1 243542153#2 243542157 -243542154#0 921117704#1 1467498054 1467498055#0 1467498055#1 1467498055#2"/>
    </vehicle>
    <vehicle id="92" type="passenger" depart="542.72">
        <route edges="921117704#0 921117704#1 1467498054 1467498056 218915135#3-AddedOnRampEdge 218915135#3 218915135#4 315658899#0 315658899#1 -315658897#1 -315658896#1 955312947#0 955312948"/>
    </vehicle>
    <vehicle id="93" type="passenger" depart="548.62">
        <route edges="243542153#4 243542153#5 243542153#6 -243542154#2 -243542154#1 -243542154#0 921117704#1 1467498054 1467498055#0 1467498055#1 1467498055#2 921258631 -781985788#2 -781985788#0 -383097722#0 383097714 383097712#1 183272462#0 183272462#1 183272462#2 -1312934686 333972428#0"/>
    </vehicle>
    <vehicle id="94" type="passenger" depart="554.51">
        <route edges="921117704#1 1467498054 1467498056 218915135#3-AddedOnRampEdge 218915135#3 218915135#4 243542153#1 243542153#2 243542153#4 243542153#5 243542153#6 243542154#5"/>
    </vehicle>
    <vehicle id="95" type="passenger" depart="560.41">
        <route edges="243542153#1 243542153#2 243542157 -243542154#0 921117704#1 1467498054 1467498056 218915135#3-AddedOnRampEdge 218915135#3 218915135#4 781983104#0 382947009"/>
    </vehicle>
    <vehicle id="96" type="passenger" depart="566.31">
        <route edges="-243542153#4 243542157 243542154#1 243542154#2 243542154#5 243542154#6"/>
    </vehicle>
    <vehicle id="97" type="passenger" depart="572.21">
        <route edges="218915135#1 218915135#2 218915135#3-AddedOnRampEdge 218915135#3 913405361 -788296725 581906883#0 581906883#1 -183272462#0 383097727#1 -383097714 383097722#0 781985788#0 781985788#2 -921258631 781985786#0 781985786#1"/>
    </vehicle>
    <vehicle id="98" type="passenger" depart="578.11">
        <route edges="-243542154#0 921117704#1 1467498054 1467498056 218915135#3-AddedOnRampEdge 218915135#3 218915135#4 243542153#1 243542153#2 243542153#4 243542153#5 -315658897#4 -315658897#3 -315658897#2"/>
    </vehicle>
    <vehicle id="99" type="passenger" depart="584.01">
        <route edges="243542154#2 -243542153#6 -243542153#5 -243542153#4 -243542153#2 -243542153#1 315658899#0 315658899#1 315658897#2"/>
    </vehicle>
    <vehicle id="100" type="passenger" depart="589.91">
        <route edges="-318747850 -243542155#0 -243542154#2 -243542154#1 -243542157"/>
    </vehicle>
    <vehicle id="101" type="passenger" depart="595.81">
        <route edges="781985789#0 781985789#1 218915135#2 218915135#3-AddedOnRampEdge 218915135#3 913405361 -788296725 -301285279#2 -301285279#1 -301285279#0 -382947009"/>
    </vehicle>
    <vehicle id="102" type="passenger" depart="601.71">
        <route edges="243542154#2 -243542153#6 -243542153#5 -243542153#4 -243542153#2 -243542153#1 921117704#0 921117704#1 1467498054 1467498055#0 1467498055#1 1467498055#2 921258631 -781985788#2 -781985788#0 -383097722#0 301285277#1"/>
    </vehicle>
    <vehicle id="103" type="passenger" depart="607.61">
        <route edges="1465558148 921258631 218915135#0 218915135#1 218915135#2 218915135#3-AddedOnRampEdge 218915135#3 218915135#4 243542153#1 243542153#2 243542153#4 243542153#5 243542153#6 243542154#5 243542154#6"/>
    </vehicle>
    <vehicle id="104" type="passenger" depart="613.50">
        <route edges="218915135#3-AddedOnRampEdge 218915135#3 913405361"/>
    </vehicle>
    <vehicle id="105" type="passenger" depart="619.40">
        <route edges="-315658897#2 -315658899#1 -315658899#0 243542153#1 243542153#2 243542153#4 243542153#5 243542153#6 243542155#0 318747850"/>
    </vehicle>
    <vehicle id="106" type="passenger" depart="625.30">
        <route edges="315658897#0 315658897#1 -315658899#1 -315658899#0 921117704#0 921117704#1 1467498054 1467498055#0 1467498055#1 1467498055#2 921258631 -781985788#2 -781985788#0"/>
    </vehicle>
    <vehicle id="107" type="passenger" depart="631.20">
        <route edges="-581906883#1 -301285277#1 383097714 383097712#1"/>
    </vehicle>
    <vehicle id="108" type="passenger" depart="637.10">
        <route edges="-243542153#6 -243542153#5 -243542153#4 -243542153#2 -243542153#1 921117704#0 921117704#1 1467498054 1467498055#0 1467498055#1 1467498055#2 921258631 218915135#0"/>
    </vehicle>
    <vehicle id="109" type="passenger" depart="643.00">
        <route edges="955312948"/>
    </vehicle>
    <vehicle id="110" type="passenger" depart="648.90">
        <route edges="-243542153#6 -315658897#4 -315658897#3 -315658897#2 -315658899#1 -315658899#0"/>
    </vehicle>
    <vehicle id="111" type="passenger" depart="654.80">
        <route edges="781985788#2 218915135#0 218915135#1 218915135#2 218915135#3-AddedOnRampEdge 218915135#3 913405361 -788296725 581906883#0 581906883#1 -183272462#0 383097727#1 -383097714 383097722#0 781985788#0"/>
    </vehicle>
    <vehicle id="112" type="passenger" depart="660.70">
        <route edges="-955312947#1 -955312947#0 -315658896#0"/>
    </vehicle>
    <vehicle id="113" type="passenger" depart="666.60">
        <route edges="243542155#0 318747850 -243542154#5 -243542153#6 -315658897#4 -315658897#3 -315658897#2 -315658897#1 -315658896#1 955312947#0 955312947#1"/>
    </vehicle>
    <vehicle id="114" type="passenger" depart="672.50">
        <route edges="315658896#0 955312947#0 955312947#1 781983103#2 921117704#0 921117704#1 1467498054 1467498055#0 1467498055#1 1467498055#2 -1465558148"/>
    </vehicle>
    <vehicle id="115" type="passenger" depart="678.39">
        <route edges="781983103#1 781983103#2 921117704#0 921117704#1 1467498054 1467498055#0 1467498055#1 1467498055#2 921258631 -781985788#2 -781985788#0"/>
    </vehicle>
    <vehicle id="116" type="passenger" depart="684.29">
        <route edges="315658896#1 315658897#1 -315658899#1 -315658899#0 921117704#0 921117704#1 1467498054 1467498056 218915135#3-AddedOnRampEdge 218915135#3 913405361"/>
    </vehicle>
    <vehicle id="117" type="passenger" depart="690.19">
        <route edges="-243542156#1 464461055 -243542157"/>
    </vehicle>
    <vehicle id="118" type="passenger" depart="696.09">
        <route edges="-243542154#6 -243542154#5 -243542153#6 -243542153#5 -243542153#4 -243542153#2 -243542153#1 921117704#0 243542154#0"/>
    </vehicle>
    <vehicle id="119" type="passenger" depart="701.99">