<?xml version="1.0" encoding="UTF-8"?>

<!-- generated on 2026-04-14 23:58:32.341886 by Eclipse SUMO randomTrips.py v1.26.0
<configuration>
    <net-file value="/Users/junlee/Desktop/2026-1/js/smart_crosswalk_sumo/sumo_nets/cw_23040/network.net.xml"/>
    <output-trip-file value="/Users/junlee/Desktop/2026-1/js/smart_crosswalk_sumo/sumo_nets/cw_23040/routes_seed42.trips.xml"/>
    <route-file value="/Users/junlee/Desktop/2026-1/js/smart_crosswalk_sumo/sumo_nets/cw_23040/routes_seed42.rou.xml"/>
    <vehicle-class value="passenger"/>
    <end value="60.0"/>
    <period value="3.9327242324431526"/>
</configuration>
-->

<routes xmlns:xsi="http://www.w3.org/2001/XMLSchema-instance" xsi:noNamespaceSchemaLocation="http://sumo.dlr.de/xsd/routes_file.xsd">
    <vType id="passenger" vClass="passenger"/>
    <trip id="0" depart="0.00" from="376666930#0" to="-224260190#0" type="passenger"/>
    <trip id="1" depart="3.93" from="-516163750#0" to="-384030401#1" type="passenger"/>
    <trip id="2" depart="7.87" from="376666932#1" to="376666931#4" type="passenger"/>
    <trip id="3" depart="11.80" from="585352852#0-AddedOffRampEdge" to="-376666921" type="passenger"/>
    <trip id="4" depart="15.73" from="1206220504#1" to="-224260190#0" type="passenger"/>
    <trip id="5" depart="19.66" from="-224260190#1" to="-376666932#1" type="passenger"/>
    <trip id="6" depart="23.60" from="376666930#1" to="333554718" type="passenger"/>
    <trip id="7" depart="27.53" from="-384030401#2" to="376666916#2" type="passenger"/>
    <trip id="8" depart="31.46" from="464445692#1" to="-1339655668" type="passenger"/>
    <trip id="9" depart="35.39" from="464445692#1" to="384030401#0" type="passenger"/>
    <trip id="10" depart="39.33" from="-376666921" to="-376666930#0" type="passenger"/>
    <trip id="11" depart="43.26" from="464445692#1" to="464445691#0" type="passenger"/>
    <trip id="12" depart="47.19" from="224260190#2" to="767111811#2" type="passenger"/>
    <trip id="13" depart="51.13" from="-778973690" to="37402371" type="passenger"/>
    <trip id="14" depart="55.06" from="516163750#1" to="376666930#1" type="passenger"/>
    <trip id="15" depart="58.99" from="376666931#3" to="-224260190#2" type="passenger"/>
</routes>
