<?xml version="1.0" encoding="UTF-8"?>

<!-- generated on 2026-04-15T03:03:57.627391+09:00 by Eclipse SUMO netconvert 1.26.0
<netconvertConfiguration xmlns:xsi="http://www.w3.org/2001/XMLSchema-instance" xsi:noNamespaceSchemaLocation="http://sumo.dlr.de/xsd/netconvertConfiguration.xsd">

    <input>
        <osm-files value="/Users/junlee/Desktop/2026-1/js/result/report_top12_seed4_2h/sumo_nets/cw_8340/map.osm"/>
    </input>

    <output>
        <output-file value="/Users/junlee/Desktop/2026-1/js/result/report_top12_seed4_2h/sumo_nets/cw_8340/network.net.xml"/>
    </output>

    <projection>
        <proj.utm value="true"/>
    </projection>

    <processing>
        <geometry.remove value="true"/>
        <roundabouts.guess value="true"/>
    </processing>

    <tls_building>
        <tls.guess value="true"/>
        <tls.guess-signals value="true"/>
    </tls_building>

    <ramp_guessing>
        <ramps.guess value="true"/>
    </ramp_guessing>

    <edge_removal>
        <keep-edges.by-vclass value="passenger,pedestrian"/>
    </edge_removal>

    <junctions>
        <no-turnarounds value="true"/>
        <junctions.join value="true"/>
    </junctions>

    <pedestrian>
        <sidewalks.guess value="true"/>
        <sidewalks.guess.max-speed value="13.89"/>
        <crossings.guess value="true"/>
    </pedestrian>

    <report>
        <verbose value="true"/>
    </report>

</netconvertConfiguration>
-->

<net version="1.20" junctionCornerDetail="5" walkingareas="true" limitTurnSpeed="5.50" xmlns:xsi="http://www.w3.org/2001/XMLSchema-instance" xsi:noNamespaceSchemaLocation="http://sumo.dlr.de/xsd/net_file.xsd">

    <location netOffset="-323669.73,-4157624.85" convBoundary="0.00,0.00,708.68,1599.60" origBoundary="126.957820,37.548802,127.011690,37.577525" projParameter="+proj=utm +zone=52 +ellps=WGS84 +datum=WGS84 +units=m +no_defs"/>

    <type id="highway.footway" priority="1" numLanes="1" speed="2.78" allow="pedestrian" oneway="1" width="2.00"/>
    <type id="highway.path" priority="1" numLanes="1" speed="5.56" allow="pedestrian bicycle" oneway="0" width="2.00"/>
    <type id="highway.pedestrian" priority="1" numLanes="1" speed="2.78" allow="pedestrian" oneway="1" width="2.00"/>
    <type id="highway.primary" priority="12" numLanes="2" speed="27.78" disallow="tram rail_urban rail rail_electric rail_fast ship container cable_car subway aircraft wheelchair scooter drone" oneway="0"/>
    <type id="highway.primary_link" priority="7" numLanes="1" speed="22.22" disallow="tram rail_urban rail rail_electric rail_fast ship container cable_car subway aircraft wheelchair scooter drone" oneway="0"/>
    <type id="highway.residential" priority="3" numLanes="1" speed="13.89" disallow="tram rail_urban rail rail_electric rail_fast ship container cable_car subway aircraft wheelchair scooter drone" oneway="0"/>
    <type id="highway.service" priority="1" numLanes="1" speed="5.56" allow="pedestrian delivery bicycle" oneway="0"/>

    <edge id=":10316183264_w0" function="walkingarea">
        <lane id=":10316183264_w0_0" index="0" allow="pedestrian" speed="2.78" length="3.20" width="6.40" shape="331.07,1220.76 328.51,1222.68 333.63,1218.84 331.07,1220.76"/>
    </edge>
    <edge id=":10316183279_0" function="internal">
        <lane id=":10316183279_0_0" index="0" disallow="pedestrian tram rail_urban rail rail_electric rail_fast ship container cable_car subway aircraft wheelchair scooter drone" speed="13.89" length="5.00" shape="283.09,1188.65 279.90,1192.49"/>
    </edge>
    <edge id=":10316183279_1" function="internal">
        <lane id=":10316183279_1_0" index="0" disallow="pedestrian tram rail_urban rail rail_electric rail_fast ship container cable_car subway aircraft wheelchair scooter drone" speed="13.89" length="5.00" shape="277.44,1190.44 280.63,1186.60"/>
    </edge>
    <edge id=":10316183279_c0" function="crossing" crossingEdges="420317544#1 -420317544#1">
        <lane id=":10316183279_c0_0" index="0" allow="pedestrian" speed="2.78" length="6.40" width="4.00" shape="277.81,1187.50 282.73,1191.59" outlineShape="279.01,1185.90 284.08,1190.12 281.45,1193.13 276.53,1189.04"/>
    </edge>
    <edge id=":10316183279_w0" function="walkingarea">
        <lane id=":10316183279_w0_0" index="0" allow="pedestrian" speed="2.78" length="3.49" width="4.00" shape="281.13,1193.51 282.67,1194.79 284.78,1194.60 286.06,1193.06 285.86,1190.95 284.32,1189.67 284.01,1190.05 281.45,1193.13"/>
    </edge>
    <edge id=":10316183279_w1" function="walkingarea">
        <lane id=":10316183279_w1_0" index="0" allow="pedestrian" speed="2.78" length="3.46" width="4.00" shape="276.53,1189.04 279.08,1185.96 279.40,1185.58 277.86,1184.30 274.67,1188.14 276.21,1189.42"/>
    </edge>
    <edge id=":10316187739_0" function="internal">
        <lane id=":10316187739_0_0" index="0" allow="delivery bicycle" speed="5.80" length="6.80" shape="502.10,1207.08 501.00,1206.29 499.63,1206.18 497.98,1206.77 496.06,1208.06"/>
    </edge>
    <edge id=":10316187739_1" function="internal">
        <lane id=":10316187739_1_0" index="0" disallow="pedestrian tram rail_urban rail rail_electric rail_fast ship container cable_car subway aircraft wheelchair scooter drone" speed="13.89" length="9.30" shape="502.10,1207.08 496.11,1199.97"/>
    </edge>
    <edge id=":10316187739_2" function="internal">
        <lane id=":10316187739_2_0" index="0" allow="bicycle" speed="9.72" length="9.32" width="2.00" shape="502.10,1207.08 496.56,1199.58"/>
    </edge>
    <edge id=":10316187739_3" function="internal">
        <lane id=":10316187739_3_0" index="0" allow="bicycle" speed="3.06" length="1.66" width="2.00" shape="502.10,1207.08 503.37,1206.01"/>
    </edge>
    <edge id=":10316187739_20" function="internal">
        <lane id=":10316187739_20_0" index="0" allow="bicycle" speed="3.06" length="0.94" width="2.00" shape="503.37,1206.01 504.09,1205.40"/>
    </edge>
    <edge id=":10316187739_4" function="internal">
        <lane id=":10316187739_4_0" index="0" allow="pedestrian bicycle" speed="5.56" length="7.32" width="2.00" shape="502.56,1206.69 501.44,1205.93 499.98,1205.90 498.19,1206.61 496.06,1208.06"/>
    </edge>
    <edge id=":10316187739_5" function="internal">
        <lane id=":10316187739_5_0" index="0" allow="bicycle" speed="9.72" length="9.32" width="2.00" shape="502.56,1206.69 496.11,1199.97"/>
    </edge>
    <edge id=":10316187739_6" function="internal">
        <lane id=":10316187739_6_0" index="0" allow="pedestrian bicycle" speed="5.56" length="9.30" width="2.00" shape="502.56,1206.69 496.56,1199.58"/>
    </edge>
    <edge id=":10316187739_7" function="internal">
        <lane id=":10316187739_7_0" index="0" allow="bicycle" speed="2.78" length="2.60" width="2.00" shape="502.56,1206.69 504.55,1205.02"/>
    </edge>
    <edge id=":10316187739_8" function="internal">
        <lane id=":10316187739_8_0" index="0" disallow="pedestrian tram rail_urban rail rail_electric rail_fast ship container cable_car subway aircraft wheelchair scooter drone" speed="13.89" length="9.30" shape="498.55,1197.91 504.55,1205.02"/>
    </edge>
    <edge id=":10316187739_9" function="internal">
        <lane id=":10316187739_9_0" index="0" allow="bicycle" speed="9.72" length="9.32" width="2.00" shape="498.55,1197.91 504.09,1205.40"/>
    </edge>
    <edge id=":10316187739_10" function="internal">
        <lane id=":10316187739_10_0" index="0" allow="delivery bicycle" speed="7.31" length="2.98" shape="498.55,1197.91 499.95,1200.38 499.95,1200.52"/>
    </edge>
    <edge id=":10316187739_11" function="internal">
        <lane id=":10316187739_11_0" index="0" allow="bicycle" speed="3.06" length="1.66" width="2.00" shape="498.55,1197.91 497.29,1198.97"/>
    </edge>
    <edge id=":10316187739_21" function="internal">
        <lane id=":10316187739_21_0" index="0" allow="delivery bicycle" speed="7.31" length="8.95" shape="499.95,1200.52 500.00,1202.90 498.70,1205.45 496.06,1208.06"/>
    </edge>
    <edge id=":10316187739_22" function="internal">
        <lane id=":10316187739_22_0" index="0" allow="bicycle" speed="3.06" length="0.94" width="2.00" shape="497.29,1198.97 496.56,1199.58"/>
    </edge>
    <edge id=":10316187739_12" function="internal">
        <lane id=":10316187739_12_0" index="0" allow="bicycle" speed="9.72" length="9.32" width="2.00" shape="498.09,1198.29 504.55,1205.02"/>
    </edge>
    <edge id=":10316187739_13" function="internal">
        <lane id=":10316187739_13_0" index="0" allow="pedestrian bicycle" speed="5.56" length="9.30" width="2.00" shape="498.09,1198.29 504.09,1205.40"/>
    </edge>
    <edge id=":10316187739_14" function="internal">
        <lane id=":10316187739_14_0" index="0" allow="pedestrian bicycle" speed="5.56" length="11.41" width="2.00" shape="498.09,1198.29 499.51,1200.74 499.65,1203.18 498.50,1205.62 496.06,1208.06"/>
    </edge>
    <edge id=":10316187739_15" function="internal">
        <lane id=":10316187739_15_0" index="0" allow="bicycle" speed="2.78" length="2.60" width="2.00" shape="498.09,1198.29 496.11,1199.97"/>
    </edge>
    <edge id=":10316187739_16" function="internal">
        <lane id=":10316187739_16_0" index="0" allow="delivery bicycle" speed="5.64" length="6.69" shape="494.07,1205.55 495.72,1204.00 496.60,1202.55 496.73,1201.21 496.11,1199.97"/>
    </edge>
    <edge id=":10316187739_17" function="internal">
        <lane id=":10316187739_17_0" index="0" allow="pedestrian bicycle" speed="5.56" length="7.23" width="2.00" shape="494.07,1205.55 495.92,1203.84 496.95,1202.27 497.17,1200.85 496.56,1199.58"/>
    </edge>
    <edge id=":10316187739_18" function="internal">
        <lane id=":10316187739_18_0" index="0" allow="delivery bicycle" speed="7.43" length="11.80" shape="494.07,1205.55 497.18,1203.57 499.97,1202.82 502.42,1203.31 504.55,1205.02"/>
    </edge>
    <edge id=":10316187739_19" function="internal">
        <lane id=":10316187739_19_0" index="0" allow="pedestrian bicycle" speed="5.56" length="11.30" width="2.00" shape="494.07,1205.55 496.98,1203.73 499.62,1203.11 501.99,1203.66 504.09,1205.40"/>
    </edge>
    <edge id=":10316187739_c0" function="crossing" crossingEdges="420187959#7">
        <lane id=":10316187739_c0_0" index="0" allow="pedestrian" speed="2.78" length="3.20" width="4.00" shape="504.48,1202.46 502.04,1204.52" outlineShape="505.77,1203.99 503.73,1205.71 500.75,1202.99 503.33,1206.05 501.80,1207.34 503.33,1206.05 504.86,1204.76 504.13,1205.38 500.75,1202.99 503.19,1200.93 505.77,1203.99 507.30,1202.70 501.30,1195.59 499.78,1196.88 502.35,1199.93 503.19,1200.93"/>
    </edge>
    <edge id=":10316187739_c1" function="crossing" crossingEdges="420187959#6">
        <lane id=":10316187739_c1_0" index="0" allow="pedestrian" speed="2.78" length="3.20" width="4.00" shape="498.62,1200.47 501.06,1198.40" outlineShape="498.74,1197.75 499.78,1196.88 499.85,1196.81 499.78,1196.88 502.35,1199.93 499.91,1202.00 497.33,1198.94"/>
    </edge>
    <edge id=":10316187739_c2" function="crossing" crossingEdges="-420187959#6">
        <lane id=":10316187739_c2_0" index="0" allow="pedestrian" speed="2.78" length="3.20" width="4.00" shape="496.17,1202.53 498.62,1200.47" outlineShape="494.88,1201.00 497.33,1198.94 496.34,1199.77 495.80,1200.23 497.33,1198.94 499.91,1202.00 497.46,1204.06"/>
    </edge>
    <edge id=":10316187739_c3" function="crossing" crossingEdges="-420187959#7">
        <lane id=":10316187739_c3_0" index="0" allow="pedestrian" speed="2.78" length="3.20" width="4.00" shape="502.04,1204.52 499.59,1206.58" outlineShape="503.33,1206.05 500.88,1208.11 500.80,1208.18 500.88,1208.11 498.30,1205.06 500.75,1202.99 502.00,1207.17 503.33,1206.05 504.86,1204.76 503.33,1206.05 500.75,1202.99"/>
    </edge>
    <edge id=":10316187739_w0" function="walkingarea">
        <lane id=":10316187739_w0_0" index="0" allow="pedestrian" speed="2.78" length="1.82" width="4.00" shape="500.75,1202.99 503.33,1206.05 501.80,1207.34 503.33,1206.05 504.86,1204.76 503.33,1206.05 500.75,1202.99"/>
    </edge>
    <edge id=":10316187739_w1" function="walkingarea">
        <lane id=":10316187739_w1_0" index="0" allow="pedestrian" speed="2.78" length="5.64" width="4.00" shape="503.19,1200.93 505.77,1203.99 507.30,1202.70 501.30,1195.59 499.78,1196.88 502.35,1199.93"/>
    </edge>
    <edge id=":10316187739_w2" function="walkingarea">
        <lane id=":10316187739_w2_0" index="0" allow="pedestrian" speed="2.78" length="1.82" width="4.00" shape="499.91,1202.00 497.33,1198.94 498.86,1197.65 497.33,1198.94 495.80,1200.23 497.33,1198.94 499.91,1202.00"/>
    </edge>
    <edge id=":10316187739_w3" function="walkingarea">
        <lane id=":10316187739_w3_0" index="0" allow="pedestrian" speed="2.78" length="5.15" width="4.00" shape="497.46,1204.06 494.88,1201.00 493.35,1202.29 493.08,1204.29 495.07,1206.80 497.05,1209.31 499.35,1209.40 500.88,1208.11 498.30,1205.06"/>
    </edge>
    <edge id=":10316187740_w0" function="walkingarea">
        <lane id=":10316187740_w0_0" index="0" allow="pedestrian" speed="2.78" length="3.20" width="6.40" shape="472.70,1223.50 470.08,1225.34 467.46,1227.18 470.08,1225.34"/>
    </edge>
    <edge id=":12868930277_0" function="internal">
        <lane id=":12868930277_0_0" index="0" disallow="pedestrian tram rail_urban rail rail_electric rail_fast ship container cable_car subway aircraft wheelchair scooter drone" speed="13.89" length="2.92" shape="559.53,1286.89 559.56,1287.75 559.56,1288.35 559.54,1288.94 559.49,1289.80"/>
    </edge>
    <edge id=":12868930277_1" function="internal">
        <lane id=":12868930277_1_0" index="0" allow="bicycle" speed="9.72" length="2.97" width="2.00" shape="559.53,1286.89 559.47,1287.75 559.27,1288.33 559.04,1288.90 558.89,1289.77"/>
    </edge>
    <edge id=":12868930277_2" function="internal">
        <lane id=":12868930277_2_0" index="0" allow="bicycle" speed="3.06" length="1.70" width="2.00" shape="559.53,1286.89 557.83,1286.94"/>
    </edge>
    <edge id=":12868930277_12" function="internal">
        <lane id=":12868930277_12_0" index="0" allow="bicycle" speed="3.06" length="0.90" width="2.00" shape="557.83,1286.94 556.94,1286.97"/>
    </edge>
    <edge id=":12868930277_3" function="internal">
        <lane id=":12868930277_3_0" index="0" allow="bicycle" speed="9.72" length="2.97" width="2.00" shape="558.94,1286.91 559.05,1287.77 559.26,1288.36 559.45,1288.94 559.49,1289.80"/>
    </edge>
    <edge id=":12868930277_4" function="internal">
        <lane id=":12868930277_4_0" index="0" allow="pedestrian bicycle" speed="5.56" length="2.86" width="2.00" shape="558.94,1286.91 558.96,1287.75 558.96,1288.34 558.94,1288.92 558.89,1289.77"/>
    </edge>
    <edge id=":12868930277_5" function="internal">
        <lane id=":12868930277_5_0" index="0" allow="bicycle" speed="2.78" length="2.60" width="2.00" shape="558.94,1286.91 556.34,1286.99"/>
    </edge>
    <edge id=":12868930277_6" function="internal">
        <lane id=":12868930277_6_0" index="0" disallow="pedestrian tram rail_urban rail rail_electric rail_fast ship container cable_car subway aircraft wheelchair scooter drone" speed="13.89" length="2.61" shape="556.29,1289.60 556.34,1288.82 556.36,1288.29 556.36,1287.76 556.34,1286.99"/>
    </edge>
    <edge id=":12868930277_7" function="internal">
        <lane id=":12868930277_7_0" index="0" allow="bicycle" speed="9.72" length="2.73" width="2.00" shape="556.29,1289.60 556.44,1288.81 556.66,1288.28 556.87,1287.76 556.94,1286.97"/>
    </edge>
    <edge id=":12868930277_8" function="internal">
        <lane id=":12868930277_8_0" index="0" allow="bicycle" speed="3.06" length="1.69" width="2.00" shape="556.29,1289.60 557.98,1289.71"/>
    </edge>
    <edge id=":12868930277_13" function="internal">
        <lane id=":12868930277_13_0" index="0" allow="bicycle" speed="3.06" length="0.91" width="2.00" shape="557.98,1289.71 558.89,1289.77"/>
    </edge>
    <edge id=":12868930277_9" function="internal">
        <lane id=":12868930277_9_0" index="0" allow="bicycle" speed="9.72" length="2.73" width="2.00" shape="556.89,1289.64 556.85,1288.84 556.66,1288.31 556.45,1287.78 556.34,1286.99"/>
    </edge>
    <edge id=":12868930277_10" function="internal">
        <lane id=":12868930277_10_0" index="0" allow="pedestrian bicycle" speed="5.56" length="2.67" width="2.00" shape="556.89,1289.64 556.94,1288.85 556.96,1288.30 556.96,1287.76 556.94,1286.97"/>
    </edge>
    <edge id=":12868930277_11" function="internal">
        <lane id=":12868930277_11_0" index="0" allow="bicycle" speed="2.78" length="2.60" width="2.00" shape="556.89,1289.64 559.49,1289.80"/>
    </edge>
    <edge id=":12868930277_c0" function="crossing" crossingEdges="420187959#9">
        <lane id=":12868930277_c0_0" index="0" allow="pedestrian" speed="2.78" length="3.20" width="4.00" shape="558.00,1288.94 561.20,1288.83" outlineShape="558.71,1286.91 561.23,1286.83 563.08,1290.04 563.12,1289.34 563.15,1288.83 563.17,1288.40 563.17,1287.98 563.15,1287.47 563.13,1286.77 561.13,1286.83 561.26,1290.83 558.06,1290.94 557.94,1286.94 558.81,1286.91"/>
    </edge>
    <edge id=":12868930277_c1" function="crossing" crossingEdges="-420187959#9">
        <lane id=":12868930277_c1_0" index="0" allow="pedestrian" speed="2.78" length="3.20" width="4.00" shape="554.80,1289.04 558.00,1288.94" outlineShape="554.74,1287.04 557.94,1286.94 558.06,1290.94 557.94,1286.94 558.06,1290.94 554.87,1291.04 552.98,1289.38 554.70,1289.49 554.73,1288.97 554.75,1288.59 554.76,1288.27 554.76,1287.95 554.75,1287.56"/>
    </edge>
    <edge id=":12868930277_c2" function="crossing" crossingEdges="-420187959#10">
        <lane id=":12868930277_c2_0" index="0" allow="pedestrian" speed="2.78" length="3.20" width="4.00" shape="558.02,1287.70 554.83,1287.50" outlineShape="557.89,1289.70 554.70,1289.49 553.02,1287.09 552.74,1287.10 552.70,1289.36 554.60,1289.49 554.96,1285.50 558.15,1285.71 557.89,1289.70 556.42,1289.61"/>
    </edge>
    <edge id=":12868930277_c3" function="crossing" crossingEdges="420187959#10">
        <lane id=":12868930277_c3_0" index="0" allow="pedestrian" speed="2.78" length="3.20" width="4.00" shape="561.21,1287.91 558.02,1287.70" outlineShape="561.08,1289.91 557.89,1289.70 555.89,1289.57 557.89,1289.70 559.89,1289.83 557.89,1289.70 558.15,1285.71 561.34,1285.92 563.13,1286.77 561.13,1286.83 561.15,1287.49 561.16,1287.97 561.16,1288.37 561.15,1288.77 561.13,1289.25"/>
    </edge>
    <edge id=":12868930277_w0" function="walkingarea">
        <lane id=":12868930277_w0_0" index="0" allow="pedestrian" speed="2.78" length="1.91" width="4.00" shape="561.08,1289.91 563.08,1290.04 563.12,1289.34 563.15,1288.83 563.17,1288.40 563.17,1287.98 563.15,1287.47 563.13,1286.77 561.13,1286.83 561.15,1287.49 561.16,1287.97 561.16,1288.37 561.15,1288.77 561.13,1289.25"/>
    </edge>
    <edge id=":12868930277_w1" function="walkingarea">
        <lane id=":12868930277_w1_0" index="0" allow="pedestrian" speed="2.78" length="2.19" width="4.00" shape="558.06,1290.94 557.94,1286.94 559.93,1286.87 557.94,1286.94 555.94,1287.00 557.94,1286.94 558.06,1290.94"/>
    </edge>
    <edge id=":12868930277_w2" function="walkingarea">
        <lane id=":12868930277_w2_0" index="0" allow="pedestrian" speed="2.78" length="1.78" width="4.00" shape="554.74,1287.04 552.74,1287.10 552.70,1289.36 554.70,1289.49 554.73,1288.97 554.75,1288.59 554.76,1288.27 554.76,1287.95 554.75,1287.56"/>
    </edge>
    <edge id=":12868930277_w3" function="walkingarea">
        <lane id=":12868930277_w3_0" index="0" allow="pedestrian" speed="2.78" length="1.82" width="4.00" shape="558.15,1285.71 557.89,1289.70 555.89,1289.57 557.89,1289.70 559.89,1289.83 557.89,1289.70 558.15,1285.71"/>
    </edge>
    <edge id=":1327210621_0" function="internal">
        <lane id=":1327210621_0_0" index="0" disallow="pedestrian tram rail_urban rail rail_electric rail_fast ship container cable_car subway aircraft wheelchair scooter drone" speed="8.72" length="10.74" shape="550.61,1080.69 547.25,1082.50 545.09,1085.11 544.14,1088.51"/>
    </edge>
    <edge id=":1327210621_1" function="internal">
        <lane id=":1327210621_1_0" index="0" disallow="pedestrian tram rail_urban rail rail_electric rail_fast ship container cable_car subway aircraft wheelchair scooter drone" speed="13.89" length="18.27" shape="550.61,1080.69 533.69,1087.58"/>
    </edge>
    <edge id=":1327210621_2" function="internal">
        <lane id=":1327210621_2_0" index="0" disallow="pedestrian tram rail_urban rail rail_electric rail_fast ship container cable_car subway aircraft wheelchair scooter drone" speed="7.96" length="3.80" shape="550.61,1080.69 546.89,1081.43"/>
    </edge>
    <edge id=":1327210621_12" function="internal">
        <lane id=":1327210621_12_0" index="0" disallow="pedestrian tram rail_urban rail rail_electric rail_fast ship container cable_car subway aircraft wheelchair scooter drone" speed="8.72" length="4.20" shape="544.14,1088.51 544.38,1092.71"/>
    </edge>
    <edge id=":1327210621_13" function="internal">
        <lane id=":1327210621_13_0" index="0" disallow="pedestrian tram rail_urban rail rail_electric rail_fast ship container cable_car subway aircraft wheelchair scooter drone" speed="7.96" length="11.08" shape="546.89,1081.43 546.60,1081.49 543.38,1080.75 540.95,1078.47 539.32,1074.65"/>
    </edge>
    <edge id=":1327210621_3" function="internal">
        <lane id=":1327210621_3_0" index="0" disallow="pedestrian tram rail_urban rail rail_electric rail_fast ship container cable_car subway aircraft wheelchair scooter drone" speed="6.44" length="9.36" shape="542.42,1073.89 543.45,1076.29 544.98,1077.72 547.01,1078.18 549.54,1077.67"/>
    </edge>
    <edge id=":1327210621_4" function="internal">
        <lane id=":1327210621_4_0" index="0" disallow="pedestrian tram rail_urban rail rail_electric rail_fast ship container cable_car subway aircraft wheelchair scooter drone" speed="13.89" length="18.98" shape="542.42,1073.89 543.53,1079.37 543.68,1083.23 543.70,1087.13 544.38,1092.71"/>
    </edge>
    <edge id=":1327210621_5" function="internal">
        <lane id=":1327210621_5_0" index="0" disallow="pedestrian tram rail_urban rail rail_electric rail_fast ship container cable_car subway aircraft wheelchair scooter drone" speed="9.28" length="17.17" shape="542.42,1073.89 542.25,1077.56 540.36,1081.55 537.31,1085.13 533.69,1087.58"/>
    </edge>
    <edge id=":1327210621_6" function="internal">
        <lane id=":1327210621_6_0" index="0" disallow="pedestrian tram rail_urban rail rail_electric rail_fast ship container cable_car subway aircraft wheelchair scooter drone" speed="8.24" length="9.00" shape="532.39,1084.65 536.05,1082.60 538.42,1080.24 538.98,1078.89"/>
    </edge>
    <edge id=":1327210621_7" function="internal">
        <lane id=":1327210621_7_0" index="0" disallow="pedestrian tram rail_urban rail rail_electric rail_fast ship container cable_car subway aircraft wheelchair scooter drone" speed="13.89" length="18.51" shape="532.39,1084.65 549.54,1077.67"/>
    </edge>
    <edge id=":1327210621_8" function="internal">
        <lane id=":1327210621_8_0" index="0" disallow="pedestrian tram rail_urban rail rail_electric rail_fast ship container cable_car subway aircraft wheelchair scooter drone" speed="8.17" length="4.53" shape="532.39,1084.65 536.78,1083.54"/>
    </edge>
    <edge id=":1327210621_14" function="internal">
        <lane id=":1327210621_14_0" index="0" disallow="pedestrian tram rail_urban rail rail_electric rail_fast ship container cable_car subway aircraft wheelchair scooter drone" speed="8.24" length="4.35" shape="538.98,1078.89 539.51,1077.60 539.32,1074.65"/>
    </edge>
    <edge id=":1327210621_15" function="internal">
        <lane id=":1327210621_15_0" index="0" disallow="pedestrian tram rail_urban rail rail_electric rail_fast ship container cable_car subway aircraft wheelchair scooter drone" speed="8.17" length="12.95" shape="536.78,1083.54 540.24,1084.51 542.78,1087.57 544.38,1092.71"/>
    </edge>
    <edge id=":1327210621_9" function="internal">
        <lane id=":1327210621_9_0" index="0" disallow="pedestrian tram rail_urban rail rail_electric rail_fast ship container cable_car subway aircraft wheelchair scooter drone" speed="6.51" length="10.67" shape="541.07,1092.39 540.09,1089.28 538.53,1087.45 536.40,1086.88 533.69,1087.58"/>
    </edge>
    <edge id=":1327210621_10" function="internal">
        <lane id=":1327210621_10_0" index="0" disallow="pedestrian tram rail_urban rail rail_electric rail_fast ship container cable_car subway aircraft wheelchair scooter drone" speed="13.89" length="17.82" shape="541.07,1092.39 539.32,1074.65"/>
    </edge>
    <edge id=":1327210621_11" function="internal">
        <lane id=":1327210621_11_0" index="0" disallow="pedestrian tram rail_urban rail rail_electric rail_fast ship container cable_car subway aircraft wheelchair scooter drone" speed="9.54" length="18.08" shape="541.07,1092.39 541.23,1088.04 542.96,1083.68 545.86,1079.99 549.54,1077.67"/>
    </edge>
    <edge id=":1327210621_c0" function="crossing" crossingEdges="375125209 -375125209">
        <lane id=":1327210621_c0_0" index="0" allow="pedestrian" speed="2.78" length="6.40" width="4.00" shape="547.12,1076.84 549.27,1082.87" outlineShape="549.00,1076.17 551.15,1082.19 549.16,1083.14 547.67,1084.34 547.39,1083.54 545.23,1077.51 544.90,1075.40 545.02,1075.59 545.78,1076.19 546.70,1076.49 547.77,1076.48"/>
    </edge>
    <edge id=":1327210621_c1" function="crossing" crossingEdges="381452170#0 -381452170#0">
        <lane id=":1327210621_c1_0" index="0" allow="pedestrian" speed="2.78" length="6.40" width="4.00" shape="538.29,1077.00 544.49,1075.40" outlineShape="537.79,1075.06 543.99,1073.46 544.10,1073.49 543.98,1073.52 544.42,1074.68 545.02,1075.59 545.78,1076.19 546.70,1076.49 546.92,1076.49 544.99,1077.34 538.79,1078.94 536.99,1079.40 537.69,1078.13 537.97,1076.64"/>
    </edge>
    <edge id=":1327210621_c2" function="crossing" crossingEdges="117914354 -117914354">
        <lane id=":1327210621_c2_0" index="0" allow="pedestrian" speed="2.78" length="6.40" width="4.00" shape="536.17,1088.23 533.57,1082.38" outlineShape="534.34,1089.04 531.74,1083.19 533.95,1082.06 535.22,1081.16 535.40,1081.57 537.99,1087.42 538.34,1089.69 537.70,1089.03 536.75,1088.62 535.63,1088.63"/>
    </edge>
    <edge id=":1327210621_c3" function="crossing" crossingEdges="117914345#0 -117914345#0">
        <lane id=":1327210621_c3_0" index="0" allow="pedestrian" speed="2.78" length="6.47" width="4.00" shape="545.59,1090.45 539.13,1090.71" outlineShape="545.77,1092.45 539.11,1092.71 539.07,1091.05 538.47,1089.84 537.70,1089.03 537.14,1088.79 545.83,1088.44 545.67,1092.45 546.09,1093.15 548.06,1092.79 551.83,1084.08 551.15,1082.19 549.16,1083.14 547.62,1084.38 546.53,1085.94 545.89,1087.79 545.83,1088.44"/>
    </edge>
    <edge id=":1327210621_w0" function="walkingarea">
        <lane id=":1327210621_w0_0" index="0" allow="pedestrian" speed="2.78" length="7.35" width="4.00" shape="545.67,1092.45 546.09,1093.15 548.06,1092.79 551.83,1084.08 551.15,1082.19 549.16,1083.14 547.62,1084.38 546.53,1085.94 545.89,1087.79 545.70,1089.95"/>
    </edge>
    <edge id=":1327210621_w1" function="walkingarea">
        <lane id=":1327210621_w1_0" index="0" allow="pedestrian" speed="2.78" length="3.33" width="4.00" shape="549.00,1076.17 548.33,1074.28 545.92,1073.00 543.98,1073.52 544.42,1074.68 545.02,1075.59 545.78,1076.19 546.70,1076.49 547.77,1076.48"/>
    </edge>
    <edge id=":1327210621_w2" function="walkingarea">
        <lane id=":1327210621_w2_0" index="0" allow="pedestrian" speed="2.78" length="6.18" width="4.00" shape="537.76,1075.01 535.83,1075.54 530.93,1081.36 531.74,1083.19 533.95,1082.06 535.67,1080.84 536.92,1079.53 537.69,1078.13 537.97,1076.64"/>
    </edge>
    <edge id=":1327210621_w3" function="walkingarea">
        <lane id=":1327210621_w3_0" index="0" allow="pedestrian" speed="2.78" length="3.48" width="4.00" shape="534.34,1089.04 535.15,1090.87 537.39,1092.30 539.36,1091.94 539.21,1092.71 539.07,1091.05 538.47,1089.84 537.70,1089.03 536.75,1088.62 535.63,1088.63"/>
    </edge>
    <edge id=":1327210742_0" function="internal">
        <lane id=":1327210742_0_0" index="0" disallow="pedestrian tram rail_urban rail rail_electric rail_fast ship container cable_car subway aircraft wheelchair scooter drone" speed="6.24" length="7.00" shape="549.23,1143.59 548.02,1140.59 546.27,1139.20 544.75,1139.36"/>
    </edge>
    <edge id=":1327210742_1" function="internal">
        <lane id=":1327210742_1_0" index="0" disallow="pedestrian tram rail_urban rail rail_electric rail_fast ship container cable_car subway aircraft wheelchair scooter drone" speed="13.89" length="15.77" shape="549.23,1143.59 548.05,1139.06 547.24,1135.95 546.65,1132.80 546.11,1128.16"/>
    </edge>
    <edge id=":1327210742_6" function="internal">
        <lane id=":1327210742_6_0" index="0" disallow="pedestrian tram rail_urban rail rail_electric rail_fast ship container cable_car subway aircraft wheelchair scooter drone" speed="6.24" length="4.14" shape="544.75,1139.36 543.99,1139.43 541.16,1141.27"/>
    </edge>
    <edge id=":1327210742_2" function="internal">
        <lane id=":1327210742_2_0" index="0" disallow="pedestrian tram rail_urban rail rail_electric rail_fast ship container cable_car subway aircraft wheelchair scooter drone" speed="13.89" length="15.30" shape="549.29,1127.86 549.82,1132.36 550.40,1135.41 551.19,1138.42 552.34,1142.82"/>
    </edge>
    <edge id=":1327210742_3" function="internal">
        <lane id=":1327210742_3_0" index="0" disallow="pedestrian tram rail_urban rail rail_electric rail_fast ship container cable_car subway aircraft wheelchair scooter drone" speed="11.52" length="3.09" shape="549.29,1127.86 549.00,1130.93"/>
    </edge>
    <edge id=":1327210742_7" function="internal">