<?xml version="1.0" encoding="UTF-8"?>

<!-- generated on 2026-04-15 23:23:20.084823 by Eclipse SUMO randomTrips.py v1.26.0
<configuration>
    <net-file value="/Users/junlee/Desktop/2026-1/js/result/report_top12_seed4_2h/sumo_nets/cw_8340/network.net.xml"/>
    <output-trip-file value="/Users/junlee/Desktop/2026-1/js/result/report_top12_seed4_2h/sumo_nets/cw_8340/routes_seed43.trips.xml"/>
    <route-file value="/Users/junlee/Desktop/2026-1/js/result/report_top12_seed4_2h/sumo_nets/cw_8340/routes_seed43.rou.xml"/>
    <vehicle-class value="passenger"/>
    <seed value="43"/>
    <end value="1800.0"/>
    <period value="7.135541146176159"/>
</configuration>
-->

<routes xmlns:xsi="http://www.w3.org/2001/XMLSchema-instance" xsi:noNamespaceSchemaLocation="http://sumo.dlr.de/xsd/routes_file.xsd">
    <vType id="passenger" vClass="passenger"/>
    <trip id="0" depart="0.00" from="-1279010544#0" to="381452126#0" type="passenger"/>
    <trip id="1" depart="7.14" from="-381452118#1" to="-520307305#2" type="passenger"/>
    <trip id="2" depart="14.27" from="381452118#4" to="381458592#1" type="passenger"/>
    <trip id="3" depart="21.41" from="-420317544#1" to="117914345#1" type="passenger"/>
    <trip id="4" depart="28.54" from="-117914352#0" to="-420317544#1" type="passenger"/>
    <trip id="5" depart="35.68" from="-420187959#4" to="420187959#2" type="passenger"/>
    <trip id="6" depart="42.81" from="218681380#1" to="381452167" type="passenger"/>
    <trip id="7" depart="49.95" from="-420317543#1" to="-381452123#0" type="passenger"/>
    <trip id="8" depart="57.08" from="420187959#2" to="420187959#1" type="passenger"/>
    <trip id="9" depart="64.22" from="-420187959#5" to="-37928420" type="passenger"/>
    <trip id="10" depart="71.36" from="117914352#0" to="117914345#1" type="passenger"/>
    <trip id="11" depart="78.49" from="381452170#0" to="375125209" type="passenger"/>
    <trip id="12" depart="85.63" from="-420187959#5" to="-218681380#2" type="passenger"/>
    <trip id="13" depart="92.76" from="-218681380#2" to="420317544#1" type="passenger"/>
    <trip id="14" depart="99.90" from="-375125209" to="420187959#3" type="passenger"/>
    <trip id="15" depart="107.03" from="239357573#2" to="420317543#1" type="passenger"/>
    <trip id="16" depart="114.17" from="381452118#5" to="-37928420" type="passenger"/>
    <trip id="17" depart="121.30" from="381452104" to="381458581#1" type="passenger"/>
    <trip id="18" depart="128.44" from="117914354" to="381452126#0" type="passenger"/>
    <trip id="19" depart="135.58" from="-381452118#4" to="420187959#2" type="passenger"/>
    <trip id="20" depart="142.71" from="381458589#0" to="-218681380#2" type="passenger"/>
    <trip id="21" depart="149.85" from="-381452123#0" to="375125209" type="passenger"/>
    <trip id="22" depart="156.98" from="520307305#2" to="218681380#3" type="passenger"/>
    <trip id="23" depart="164.12" from="-381452098" to="117914345#1" type="passenger"/>
    <trip id="24" depart="171.25" from="381452126#1" to="-218681380#1" type="passenger"/>
    <trip id="25" depart="178.39" from="520307305#1" to="375125209" type="passenger"/>
    <trip id="26" depart="185.52" from="-381452118#2" to="381458600" type="passenger"/>
    <trip id="27" depart="192.66" from="-381452098" to="218681380#1" type="passenger"/>
    <trip id="28" depart="199.80" from="-420317544#0" to="-218681380#0" type="passenger"/>
    <trip id="29" depart="206.93" from="-117914345#0" to="420187959#9" type="passenger"/>
    <trip id="30" depart="214.07" from="520307305#3" to="-381452118#0" type="passenger"/>
    <trip id="31" depart="221.20" from="381452151" to="520307305#4" type="passenger"/>
    <trip id="32" depart="228.34" from="-420187959#11" to="381452143#0" type="passenger"/>
    <trip id="33" depart="235.47" from="-520307305#4" to="420317544#1" type="passenger"/>
    <trip id="34" depart="242.61" from="381452126#0" to="420187959#12" type="passenger"/>
    <trip id="35" depart="249.74" from="381452126#1" to="-37928420" type="passenger"/>
    <trip id="36" depart="256.88" from="-381452126#1" to="420317544#1" type="passenger"/>
    <trip id="37" depart="264.02" from="-420187959#8" to="381452123#0" type="passenger"/>
    <trip id="38" depart="271.15" from="239357573#1" to="-381452170#1" type="passenger"/>
    <trip id="39" depart="278.29" from="239357573#3" to="420317540" type="passenger"/>
    <trip id="40" depart="285.42" from="-420187959#10" to="-420187959#4" type="passenger"/>
    <trip id="41" depart="292.56" from="-381452123#0" to="-381452123#1" type="passenger"/>
    <trip id="42" depart="299.69" from="420187959#1" to="381452126#1" type="passenger"/>
    <trip id="43" depart="306.83" from="520307305#1" to="381452118#5" type="passenger"/>
    <trip id="44" depart="313.96" from="520307305#0" to="-381452151" type="passenger"/>
    <trip id="45" depart="321.10" from="-381452123#1" to="-381452143#1" type="passenger"/>
    <trip id="46" depart="328.23" from="-420187959#6" to="520307305#4" type="passenger"/>
    <trip id="47" depart="335.37" from="-381452143#1" to="-520307305#1" type="passenger"/>
    <trip id="48" depart="342.51" from="-218681380#2" to="-1279010544#0" type="passenger"/>
    <trip id="49" depart="349.64" from="218681380#1" to="381452103#0" type="passenger"/>
    <trip id="50" depart="356.78" from="117914345#0" to="420317540" type="passenger"/>
    <trip id="51" depart="363.91" from="420187959#3" to="420317544#2" type="passenger"/>
    <trip id="52" depart="371.05" from="239357573#2" to="-381452170#1" type="passenger"/>
    <trip id="53" depart="378.18" from="-381452103#1" to="381452170#0" type="passenger"/>
    <trip id="54" depart="385.32" from="-381452118#3" to="-117914345#0" type="passenger"/>
    <trip id="55" depart="392.45" from="381452126#0" to="-381452118#0" type="passenger"/>
    <trip id="56" depart="399.59" from="381452104" to="-381452126#1" type="passenger"/>
    <trip id="57" depart="406.73" from="-420317543#0" to="-117914352#0" type="passenger"/>
    <trip id="58" depart="413.86" from="-381452170#0" to="-381452118#1" type="passenger"/>
    <trip id="59" depart="421.00" from="239357573#1" to="381452123#1" type="passenger"/>
    <trip id="60" depart="428.13" from="-381452126#0" to="-218681380#1" type="passenger"/>
    <trip id="61" depart="435.27" from="-381452170#0" to="381452126#0" type="passenger"/>
    <trip id="62" depart="442.40" from="-381452170#1" to="381452118#2" type="passenger"/>
    <trip id="63" depart="449.54" from="-381452118#1" to="-381452151" type="passenger"/>
    <trip id="64" depart="456.67" from="381452143#1" to="-520307305#3" type="passenger"/>
    <trip id="65" depart="463.81" from="381452118#0" to="-381458592#1" type="passenger"/>
    <trip id="66" depart="470.95" from="381452118#4" to="-381458600" type="passenger"/>
    <trip id="67" depart="478.08" from="-520307305#2" to="-520307305#0" type="passenger"/>
    <trip id="68" depart="485.22" from="420317540" to="381452167" type="passenger"/>
    <trip id="69" depart="492.35" from="218681380#1" to="420187959#12" type="passenger"/>
    <trip id="70" depart="499.49" from="381452103#0" to="381452143#1" type="passenger"/>
    <trip id="71" depart="506.62" from="-381452143#0" to="420317543#1" type="passenger"/>
    <trip id="72" depart="513.76" from="381452118#0" to="420187959#1" type="passenger"/>
    <trip id="73" depart="520.89" from="37928420" to="-1279010544#0" type="passenger"/>
    <trip id="74" depart="528.03" from="-381452098" to="420187959#6" type="passenger"/>
    <trip id="75" depart="535.17" from="381452126#0" to="420187959#9" type="passenger"/>
    <trip id="76" depart="542.30" from="520307305#4" to="381452098" type="passenger"/>
    <trip id="77" depart="549.44" from="381452143#1" to="117914354" type="passenger"/>
    <trip id="78" depart="556.57" from="-381452167" to="117914345#0" type="passenger"/>
    <trip id="79" depart="563.71" from="-420317544#2" to="-381458592#2" type="passenger"/>
    <trip id="80" depart="570.84" from="-420187959#12" to="-420317544#2" type="passenger"/>
    <trip id="81" depart="577.98" from="-381452170#0" to="-381452118#2" type="passenger"/>
    <trip id="82" depart="585.11" from="381458592#1" to="-420187959#5" type="passenger"/>
    <trip id="83" depart="592.25" from="-420187959#3" to="381458581#1" type="passenger"/>
    <trip id="84" depart="599.39" from="381452123#1" to="-520307305#0" type="passenger"/>
    <trip id="85" depart="606.52" from="-381458600" to="381458592#1" type="passenger"/>
    <trip id="86" depart="613.66" from="-381452165#1" to="-520307305#2" type="passenger"/>
    <trip id="87" depart="620.79" from="-420187959#5" to="520307305#5" type="passenger"/>
    <trip id="88" depart="627.93" from="-381452165#1" to="244215552#1" type="passenger"/>
    <trip id="89" depart="635.06" from="117914352#1" to="-218681380#2" type="passenger"/>
    <trip id="90" depart="642.20" from="-381452123#0" to="420187959#6" type="passenger"/>
    <trip id="91" depart="649.33" from="381458592#0" to="-381452143#1" type="passenger"/>
    <trip id="92" depart="656.47" from="-381452118#5" to="420317544#1" type="passenger"/>
    <trip id="93" depart="663.61" from="239357573#3" to="381452143#0" type="passenger"/>
    <trip id="94" depart="670.74" from="-520307305#4" to="420317540" type="passenger"/>
    <trip id="95" depart="677.88" from="-381452123#0" to="-381452170#0" type="passenger"/>
    <trip id="96" depart="685.01" from="420187959#6" to="420187959#12" type="passenger"/>
    <trip id="97" depart="692.15" from="117914352#0" to="-381452118#1" type="passenger"/>
    <trip id="98" depart="699.28" from="381452165#2" to="-381452170#0" type="passenger"/>
    <trip id="99" depart="706.42" from="-381452118#2" to="381452123#1" type="passenger"/>
    <trip id="100" depart="713.55" from="-420187959#7" to="-420187959#7" type="passenger"/>
    <trip id="101" depart="720.69" from="-420317544#0" to="-520307305#1" type="passenger"/>
    <trip id="102" depart="727.83" from="-520307305#0" to="381452118#2" type="passenger"/>
    <trip id="103" depart="734.96" from="-381452098" to="381452118#5" type="passenger"/>
    <trip id="104" depart="742.10" from="-520307305#2" to="420187959#1" type="passenger"/>
    <trip id="105" depart="749.23" from="-381458581#1" to="381452118#4" type="passenger"/>
    <trip id="106" depart="756.37" from="-381452126#1" to="381452126#0" type="passenger"/>
    <trip id="107" depart="763.50" from="381452118#5" to="218681380#2" type="passenger"/>
    <trip id="108" depart="770.64" from="-520307305#1" to="420317544#2" type="passenger"/>
    <trip id="109" depart="777.77" from="-420187959#3" to="-239357573#3" type="passenger"/>
    <trip id="110" depart="784.91" from="-420187959#10" to="-218681380#1" type="passenger"/>
    <trip id="111" depart="792.05" from="420187959#7" to="420187959#11" type="passenger"/>
    <trip id="112" depart="799.18" from="-381452123#0" to="381452103#1" type="passenger"/>
    <trip id="113" depart="806.32" from="-381452126#1" to="420187959#3" type="passenger"/>
    <trip id="114" depart="813.45" from="-420187959#9" to="-239357573#0" type="passenger"/>
    <trip id="115" depart="820.59" from="381452118#0" to="-239357573#3" type="passenger"/>
    <trip id="116" depart="827.72" from="381452103#0" to="-381452165#2" type="passenger"/>
    <trip id="117" depart="834.86" from="381452170#1" to="-218681380#0" type="passenger"/>
    <trip id="118" depart="841.99" from="-381452098" to="-381458600" type="passenger"/>
    <trip id="119" depart="849.13" from="-218681380#3" to="420187959#5" type="passenger"/>
    <trip id="120" depart="856.26" from="381452118#4" to="381458600" type="passenger"/>
    <trip id="121" depart="863.40" from="381452118#2" to="-381452151" type="passenger"/>
    <trip id="122" depart="870.54" from="-381452182" to="381452098" type="passenger"/>
    <trip id="123" depart="877.67" from="381458592#0" to="381452103#1" type="passenger"/>
    <trip id="124" depart="884.81" from="-420187959#1" to="381458592#2" type="passenger"/>
    <trip id="125" depart="891.94" from="-420187959#9" to="381452103#1" type="passenger"/>
    <trip id="126" depart="899.08" from="420187959#2" to="381452118#4" type="passenger"/>
    <trip id="127" depart="906.21" from="-420317544#2" to="244215552#1" type="passenger"/>
    <trip id="128" depart="913.35" from="-381452126#1" to="-420317544#2" type="passenger"/>
    <trip id="129" depart="920.48" from="-117914352#0" to="381458600" type="passenger"/>
    <trip id="130" depart="927.62" from="-381452118#3" to="-218681380#0" type="passenger"/>
    <trip id="131" depart="934.76" from="239357573#2" to="381452170#1" type="passenger"/>
    <trip id="132" depart="941.89" from="-381452098" to="-520307305#0" type="passenger"/>
    <trip id="133" depart="949.03" from="-420317544#2" to="-381452118#0" type="passenger"/>
    <trip id="134" depart="956.16" from="381452108" to="-381452170#0" type="passenger"/>
    <trip id="135" depart="963.30" from="381452123#1" to="117914352#0" type="passenger"/>
    <trip id="136" depart="970.43" from="117914352#1" to="-381452165#0" type="passenger"/>
    <trip id="137" depart="977.57" from="381452165#2" to="-117914352#0" type="passenger"/>
    <trip id="138" depart="984.70" from="-381458600" to="-381452103#0" type="passenger"/>
    <trip id="139" depart="991.84" from="117914352#1" to="-239357573#1" type="passenger"/>
    <trip id="140" depart="998.98" from="-381452103#0" to="-420317544#1" type="passenger"/>
    <trip id="141" depart="1006.11" from="381452118#5" to="-381452143#0" type="passenger"/>
    <trip id="142" depart="1013.25" from="420317543#0" to="381458600" type="passenger"/>
    <trip id="143" depart="1020.38" from="520307305#4" to="-420187959#5" type="passenger"/>
    <trip id="144" depart="1027.52" from="-381452182" to="-420317544#0" type="passenger"/>
    <trip id="145" depart="1034.65" from="-117914352#0" to="381452143#1" type="passenger"/>
    <trip id="146" depart="1041.79" from="-218681380#2" to="-420317544#0" type="passenger"/>
    <trip id="147" depart="1048.92" from="-381452167" to="420317544#2" type="passenger"/>
    <trip id="148" depart="1056.06" from="-381458592#1" to="-420187959#5" type="passenger"/>
    <trip id="149" depart="1063.20" from="-381458592#2" to="-381452118#0" type="passenger"/>
    <trip id="150" depart="1070.33" from="381452118#1" to="-381458600" type="passenger"/>
    <trip id="151" depart="1077.47" from="-381452170#1" to="-420187959#1" type="passenger"/>
    <trip id="152" depart="1084.60" from="-420187959#2" to="381458592#1" type="passenger"/>
    <trip id="153" depart="1091.74" from="-381452143#0" to="-381452118#0" type="passenger"/>
    <trip id="154" depart="1098.87" from="-381452182" to="-381452104" type="passenger"/>
    <trip id="155" depart="1106.01" from="-420317543#1" to="-381452123#0" type="passenger"/>
    <trip id="156" depart="1113.14" from="381452118#4" to="381452143#1" type="passenger"/>
    <trip id="157" depart="1120.28" from="-381452167" to="381452103#1" type="passenger"/>
    <trip id="158" depart="1127.42" from="-381458581#1" to="381458592#1" type="passenger"/>
    <trip id="159" depart="1134.55" from="381452104" to="117914352#1" type="passenger"/>
    <trip id="160" depart="1141.69" from="-420317543#1" to="218681380#3" type="passenger"/>
    <trip id="161" depart="1148.82" from="-520307305#2" to="-381452170#0" type="passenger"/>
    <trip id="162" depart="1155.96" from="-420187959#6" to="-420317540" type="passenger"/>
    <trip id="163" depart="1163.09" from="420317543#0" to="-117914354" type="passenger"/>
    <trip id="164" depart="1170.23" from="381452170#0" to="-381452118#5" type="passenger"/>
    <trip id="165" depart="1177.36" from="-381452123#1" to="-420187959#4" type="passenger"/>
    <trip id="166" depart="1184.50" from="117914352#0" to="117914352#1" type="passenger"/>
    <trip id="167" depart="1191.64" from="-381452170#1" to="381452118#0" type="passenger"/>
    <trip id="168" depart="1198.77" from="218681380#2" to="-381458600" type="passenger"/>
    <trip id="169" depart="1205.91" from="381452143#1" to="-117914352#0" type="passenger"/>
    <trip id="170" depart="1213.04" from="520307305#4" to="420187959#5" type="passenger"/>
    <trip id="171" depart="1220.18" from="-218681380#2" to="381452143#0" type="passenger"/>
    <trip id="172" depart="1227.31" from="-381452118#0" to="520307305#4" type="passenger"/>
    <trip id="173" depart="1234.45" from="-420317544#1" to="381452165#2" type="passenger"/>
    <trip id="174" depart="1241.58" from="-381452167" to="381452118#3" type="passenger"/>
    <trip id="175" depart="1248.72" from="-117914354" to="381458592#2" type="passenger"/>
    <trip id="176" depart="1255.86" from="-381452170#0" to="-381452123#0" type="passenger"/>
    <trip id="177" depart="1262.99" from="-420317544#0" to="117914352#0" type="passenger"/>
    <trip id="178" depart="1270.13" from="-218681380#0" to="-381452118#5" type="passenger"/>
    <trip id="179" depart="1277.26" from="-420187959#5" to="218681380#2" type="passenger"/>
    <trip id="180" depart="1284.40" from="381452126#0" to="-381452118#1" type="passenger"/>
    <trip id="181" depart="1291.53" from="420187959#1" to="-420187959#5" type="passenger"/>
    <trip id="182" depart="1298.67" from="-420317544#1" to="-420187959#5" type="passenger"/>
    <trip id="183" depart="1305.80" from="239357573#3" to="381452167" type="passenger"/>
    <trip id="184" depart="1312.94" from="-381452118#2" to="117914345#0" type="passenger"/>
    <trip id="185" depart="1320.08" from="-381458581#1" to="-381458589#0" type="passenger"/>
    <trip id="186" depart="1327.21" from="-420187959#7" to="381452103#1" type="passenger"/>
    <trip id="187" depart="1334.35" from="-420317544#2" to="381452126#0" type="passenger"/>
    <trip id="188" depart="1341.48" from="520307305#4" to="244215552#1" type="passenger"/>
    <trip id="189" depart="1348.62" from="520307305#2" to="-420187959#4" type="passenger"/>
    <trip id="190" depart="1355.75" from="-117914352#0" to="420187959#1" type="passenger"/>
    <trip id="191" depart="1362.89" from="420187959#8" to="420187959#8" type="passenger"/>
    <trip id="192" depart="1370.02" from="-420187959#11" to="381452165#0" type="passenger"/>
    <trip id="193" depart="1377.16" from="420187959#1" to="-520307305#0" type="passenger"/>
    <trip id="194" depart="1384.29" from="420317543#0" to="117914354" type="passenger"/>
    <trip id="195" depart="1391.43" from="-381452165#1" to="-420317544#1" type="passenger"/>
    <trip id="196" depart="1398.57" from="-420187959#10" to="381452118#0" type="passenger"/>
    <trip id="197" depart="1405.70" from="-420187959#1" to="117914345#0" type="passenger"/>
    <trip id="198" depart="1412.84" from="-381452098" to="-520307305#4" type="passenger"/>
    <trip id="199" depart="1419.97" from="-420187959#10" to="-420187959#7" type="passenger"/>
    <trip id="200" depart="1427.11" from="-117914354" to="520307305#4" type="passenger"/>
    <trip id="201" depart="1434.24" from="-381452126#1" to="-117914352#0" type="passenger"/>
    <trip id="202" depart="1441.38" from="239357573#2" to="-218681380#0" type="passenger"/>
    <trip id="203" depart="1448.51" from="239357573#1" to="420317540" type="passenger"/>
    <trip id="204" depart="1455.65" from="-218681380#2" to="-520307305#3" type="passenger"/>
    <trip id="205" depart="1462.79" from="-381452118#0" to="-239357573#0" type="passenger"/>
    <trip id="206" depart="1469.92" from="381452123#1" to="381452170#0" type="passenger"/>
    <trip id="207" depart="1477.06" from="-420317543#0" to="-420187959#4" type="passenger"/>
    <trip id="208" depart="1484.19" from="520307305#3" to="-381452165#2" type="passenger"/>
    <trip id="209" depart="1491.33" from="381458592#1" to="381458600" type="passenger"/>
    <trip id="210" depart="1498.46" from="-420317544#1" to="381458581#1" type="passenger"/>
    <trip id="211" depart="1505.60" from="-420187959#10" to="420187959#8" type="passenger"/>
    <trip id="212" depart="1512.73" from="381452165#0" to="381452103#1" type="passenger"/>
    <trip id="213" depart="1519.87" from="420187959#4" to="-420187959#4" type="passenger"/>
    <trip id="214" depart="1527.01" from="-420187959#5" to="420317544#2" type="passenger"/>
    <trip id="215" depart="1534.14" from="-420317543#1" to="-420187959#1" type="passenger"/>
    <trip id="216" depart="1541.28" from="381458592#2" to="-420187959#4" type="passenger"/>
    <trip id="217" depart="1548.41" from="381452103#0" to="-218681380#1" type="passenger"/>
    <trip id="218" depart="1555.55" from="-420317543#0" to="381458592#2" type="passenger"/>
    <trip id="219" depart="1562.68" from="381458592#1" to="381452165#1" type="passenger"/>
    <trip id="220" depart="1569.82" from="381452143#1" to="117914352#1" type="passenger"/>
    <trip id="221" depart="1576.95" from="381452165#0" to="-1279010544#0" type="passenger"/>
    <trip id="222" depart="1584.09" from="-381452165#1" to="-117914354" type="passenger"/>
    <trip id="223" depart="1591.23" from="-520307305#1" to="-381452123#0" type="passenger"/>
    <trip id="224" depart="1598.36" from="218681380#1" to="-381452108" type="passenger"/>
    <trip id="225" depart="1605.50" from="381458592#0" to="420187959#11" type="passenger"/>
    <trip id="226" depart="1612.63" from="-420187959#9" to="420187959#6" type="passenger"/>
    <trip id="227" depart="1619.77" from="381452118#0" to="-520307305#0" type="passenger"/>
    <trip id="228" depart="1626.90" from="-381452118#1" to="420187959#8" type="passenger"/>
    <trip id="229" depart="1634.04" from="-381452143#1" to="420187959#5" type="passenger"/>
    <trip id="230" depart="1641.17" from="-420187959#6" to="218681380#3" type="passenger"/>
    <trip id="231" depart="1648.31" from="381452103#0" to="-420187959#5" type="passenger"/>
    <trip id="232" depart="1655.45" from="520307305#4" to="420187959#2" type="passenger"/>
    <trip id="233" depart="1662.58" from="-420187959#6" to="-420187959#2" type="passenger"/>
    <trip id="234" depart="1669.72" from="-420187959#3" to="-381452118#1" type="passenger"/>
    <trip id="235" depart="1676.85" from="117914354" to="-520307305#2" type="passenger"/>
    <trip id="236" depart="1683.99" from="-420317544#0" to="375125209" type="passenger"/>
    <trip id="237" depart="1691.12" from="381452118#5" to="218681380#3" type="passenger"/>
    <trip id="238" depart="1698.26" from="420317540" to="381452123#0" type="passenger"/>
    <trip id="239" depart="1705.39" from="-381452143#0" to="-520307305#1" type="passenger"/>
    <trip id="240" depart="1712.53" from="520307305#0" to="-381452118#3" type="passenger"/>
    <trip id="241" depart="1719.67" from="381452104" to="117914354" type="passenger"/>
    <trip id="242" depart="1726.80" from="-381452167" to="-37928420" type="passenger"/>
    <trip id="243" depart="1733.94" from="-381458600" to="381452118#5" type="passenger"/>
    <trip id="244" depart="1741.07" from="-520307305#3" to="117914352#1" type="passenger"/>
    <trip id="245" depart="1748.21" from="-420317544#1" to="-218681380#0" type="passenger"/>
    <trip id="246" depart="1755.34" from="-218681380#3" to="-381452118#0" type="passenger"/>
    <trip id="247" depart="1762.48" from="381458600" to="381452126#0" type="passenger"/>
    <trip id="248" depart="1769.61" from="520307305#1" to="381452123#1" type="passenger"/>
    <trip id="249" depart="1776.75" from="-381452143#1" to="244215552#0" type="passenger"/>
    <trip id="250" depart="1783.89" from="381452118#3" to="-381458592#0" type="passenger"/>
    <trip id="251" depart="1791.02" from="-420187959#9" to="381458592#1" type="passenger"/>
    <trip id="252" depart="1798.16" from="-381452126#1" to="-1279010544#0" type="passenger"/>
</routes>
