<?xml version="1.0" encoding="UTF-8"?>

<!-- generated on 2026-04-15T00:17:31.682218+09:00 by Eclipse SUMO netconvert 1.26.0
<netconvertConfiguration xmlns:xsi="http://www.w3.org/2001/XMLSchema-instance" xsi:noNamespaceSchemaLocation="http://sumo.dlr.de/xsd/netconvertConfiguration.xsd">

    <input>
        <osm-files value="/Users/junlee/Desktop/2026-1/js/result/2026-04-15_00-06-49/sumo_nets/cw_8902/map.osm"/>
    </input>

    <output>
        <output-file value="/Users/junlee/Desktop/2026-1/js/result/2026-04-15_00-06-49/sumo_nets/cw_8902/network.net.xml"/>
    </output>

    <projection>
        <proj.utm value="true"/>
    </projection>

    <processing>
        <geometry.remove value="true"/>
        <roundabouts.guess value="true"/>
    </processing>

    <tls_building>
        <tls.guess value="true"/>
        <tls.guess-signals value="true"/>
    </tls_building>

    <ramp_guessing>
        <ramps.guess value="true"/>
    </ramp_guessing>

    <edge_removal>
        <keep-edges.by-vclass value="passenger,pedestrian"/>
    </edge_removal>

    <junctions>
        <no-turnarounds value="true"/>
        <junctions.join value="true"/>
    </junctions>

    <pedestrian>
        <sidewalks.guess value="true"/>
        <sidewalks.guess.max-speed value="13.89"/>
        <crossings.guess value="true"/>
    </pedestrian>

    <report>
        <verbose value="true"/>
    </report>

</netconvertConfiguration>
-->

<net version="1.20" junctionCornerDetail="5" walkingareas="true" limitTurnSpeed="5.50" xmlns:xsi="http://www.w3.org/2001/XMLSchema-instance" xsi:noNamespaceSchemaLocation="http://sumo.dlr.de/xsd/net_file.xsd">

    <location netOffset="-324227.26,-4158279.90" convBoundary="0.00,0.00,1269.17,1178.38" origBoundary="126.992118,37.539820,127.079565,37.586491" projParameter="+proj=utm +zone=52 +ellps=WGS84 +datum=WGS84 +units=m +no_defs"/>

    <type id="highway.footway" priority="1" numLanes="1" speed="2.78" allow="pedestrian" oneway="1" width="2.00"/>
    <type id="highway.residential" priority="3" numLanes="1" speed="13.89" disallow="tram rail_urban rail rail_electric rail_fast ship container cable_car subway aircraft wheelchair scooter drone" oneway="0"/>
    <type id="highway.secondary" priority="11" numLanes="1" speed="27.78" disallow="tram rail_urban rail rail_electric rail_fast ship container cable_car subway aircraft wheelchair scooter drone" oneway="0"/>
    <type id="highway.service" priority="1" numLanes="1" speed="5.56" allow="pedestrian delivery bicycle" oneway="0"/>
    <type id="highway.tertiary" priority="10" numLanes="1" speed="22.22" disallow="tram rail_urban rail rail_electric rail_fast ship container cable_car subway aircraft wheelchair scooter drone" oneway="0"/>

    <edge id=":1326096577_w0" function="walkingarea">
        <lane id=":1326096577_w0_0" index="0" allow="pedestrian" speed="2.78" length="8.40" width="2.00" shape="590.45,403.56 591.76,405.07 584.94,397.21 586.25,398.72"/>
    </edge>
    <edge id=":1326096607_0" function="internal">
        <lane id=":1326096607_0_0" index="0" disallow="pedestrian tram rail_urban rail rail_electric rail_fast ship container cable_car subway aircraft wheelchair scooter drone" speed="6.47" length="8.90" shape="397.37,579.25 396.27,578.04 394.57,577.62 392.25,577.99 389.32,579.17"/>
    </edge>
    <edge id=":1326096607_1" function="internal">
        <lane id=":1326096607_1_0" index="0" disallow="pedestrian tram rail_urban rail rail_electric rail_fast ship container cable_car subway aircraft wheelchair scooter drone" speed="11.11" length="10.72" shape="397.37,579.25 395.76,576.53 394.34,574.86 392.91,573.19 391.30,570.47"/>
    </edge>
    <edge id=":1326096607_2" function="internal">
        <lane id=":1326096607_2_0" index="0" disallow="pedestrian tram rail_urban rail rail_electric rail_fast ship container cable_car subway aircraft wheelchair scooter drone" speed="7.32" length="11.43" shape="397.37,579.25 396.47,576.37 396.74,573.83 398.18,571.63 400.81,569.77"/>
    </edge>
    <edge id=":1326096607_3" function="internal">
        <lane id=":1326096607_3_0" index="0" disallow="tram rail_urban rail rail_electric rail_fast ship container cable_car subway aircraft wheelchair scooter drone" speed="27.78" length="14.55" shape="402.30,572.60 389.32,579.17"/>
    </edge>
    <edge id=":1326096607_4" function="internal">
        <lane id=":1326096607_4_0" index="0" disallow="pedestrian tram rail_urban rail rail_electric rail_fast ship container cable_car subway aircraft wheelchair scooter drone" speed="7.55" length="4.59" shape="402.30,572.60 398.64,574.03 397.97,574.05"/>
    </edge>
    <edge id=":1326096607_9" function="internal">
        <lane id=":1326096607_9_0" index="0" disallow="pedestrian tram rail_urban rail rail_electric rail_fast ship container cable_car subway aircraft wheelchair scooter drone" speed="7.55" length="8.21" shape="397.97,574.05 395.59,574.15 393.14,572.96 391.30,570.47"/>
    </edge>
    <edge id=":1326096607_5" function="internal">
        <lane id=":1326096607_5_0" index="0" disallow="pedestrian tram rail_urban rail rail_electric rail_fast ship container cable_car subway aircraft wheelchair scooter drone" speed="5.95" length="7.55" shape="394.18,569.06 395.20,570.36 396.65,570.91 398.52,570.71 400.81,569.77"/>
    </edge>
    <edge id=":1326096607_6" function="internal">
        <lane id=":1326096607_6_0" index="0" disallow="pedestrian tram rail_urban rail rail_electric rail_fast ship container cable_car subway aircraft wheelchair scooter drone" speed="7.61" length="12.74" shape="394.18,569.06 395.02,572.04 394.49,574.72 392.59,577.09 389.32,579.17"/>
    </edge>
    <edge id=":1326096607_7" function="internal">
        <lane id=":1326096607_7_0" index="0" disallow="pedestrian tram rail_urban rail rail_electric rail_fast ship container cable_car subway aircraft wheelchair scooter drone" speed="6.03" length="7.60" shape="387.91,576.30 390.01,575.01 391.28,573.61 391.71,572.10 391.30,570.47"/>
    </edge>
    <edge id=":1326096607_8" function="internal">
        <lane id=":1326096607_8_0" index="0" disallow="tram rail_urban rail rail_electric rail_fast ship container cable_car subway aircraft wheelchair scooter drone" speed="27.78" length="14.45" shape="387.91,576.30 400.81,569.77"/>
    </edge>
    <edge id=":1326096607_c0" function="crossing" crossingEdges="420092887#2">
        <lane id=":1326096607_c0_0" index="0" allow="pedestrian" speed="2.78" length="3.20" width="4.00" shape="397.93,576.76 395.05,578.16" outlineShape="398.81,578.55 395.93,579.95 395.84,580.00 395.93,579.95 394.83,577.97 393.84,576.61 397.45,574.77 397.92,576.46"/>
    </edge>
    <edge id=":1326096607_w0" function="walkingarea">
        <lane id=":1326096607_w0_0" index="0" allow="pedestrian" speed="2.78" length="6.47" width="4.00" shape="389.86,571.17 388.07,572.04 387.21,574.86 388.62,577.73 390.02,580.61 394.13,580.83 395.93,579.95 394.83,577.97 393.84,576.61 392.90,575.56 391.96,574.51 390.96,573.15"/>
    </edge>
    <edge id=":1326096607_w1" function="walkingarea">
        <lane id=":1326096607_w1_0" index="0" allow="pedestrian" speed="2.78" length="6.31" width="4.00" shape="398.81,578.55 403.04,574.02 401.55,571.18 400.06,568.35 397.41,567.48 395.62,568.36 396.50,570.45 396.96,572.07 397.21,573.46 397.46,574.84 397.92,576.46"/>
    </edge>
    <edge id=":1326096609_0" function="internal">
        <lane id=":1326096609_0_0" index="0" disallow="pedestrian tram rail_urban rail rail_electric rail_fast ship container cable_car subway aircraft wheelchair scooter drone" speed="6.32" length="5.42" shape="502.92,464.04 501.48,461.72 499.70,460.58 499.13,460.59"/>
    </edge>
    <edge id=":1326096609_1" function="internal">
        <lane id=":1326096609_1_0" index="0" disallow="pedestrian tram rail_urban rail rail_electric rail_fast ship container cable_car subway aircraft wheelchair scooter drone" speed="13.89" length="18.17" shape="502.92,464.04 495.31,447.55"/>
    </edge>
    <edge id=":1326096609_2" function="internal">
        <lane id=":1326096609_2_0" index="0" disallow="pedestrian tram rail_urban rail rail_electric rail_fast ship container cable_car subway aircraft wheelchair scooter drone" speed="9.01" length="5.58" shape="502.92,464.04 501.93,459.65 502.01,458.58"/>
    </edge>
    <edge id=":1326096609_12" function="internal">
        <lane id=":1326096609_12_0" index="0" disallow="pedestrian tram rail_urban rail rail_electric rail_fast ship container cable_car subway aircraft wheelchair scooter drone" speed="6.32" length="4.29" shape="499.13,460.59 497.58,460.62 495.13,461.84"/>
    </edge>
    <edge id=":1326096609_13" function="internal">
        <lane id=":1326096609_13_0" index="0" disallow="pedestrian tram rail_urban rail rail_electric rail_fast ship container cable_car subway aircraft wheelchair scooter drone" speed="9.01" length="12.33" shape="502.01,458.58 502.28,454.79 503.90,450.48 506.72,447.75"/>
    </edge>
    <edge id=":1326096609_3" function="internal">
        <lane id=":1326096609_3_0" index="0" disallow="pedestrian tram rail_urban rail rail_electric rail_fast ship container cable_car subway aircraft wheelchair scooter drone" speed="8.26" length="14.87" shape="509.31,450.07 506.29,452.19 504.70,455.00 504.56,458.53 505.85,462.76"/>
    </edge>
    <edge id=":1326096609_4" function="internal">
        <lane id=":1326096609_4_0" index="0" disallow="pedestrian tram rail_urban rail rail_electric rail_fast ship container cable_car subway aircraft wheelchair scooter drone" speed="13.89" length="18.55" shape="509.31,450.07 504.64,452.83 501.94,455.46 499.37,458.34 495.13,461.84"/>
    </edge>
    <edge id=":1326096609_5" function="internal">
        <lane id=":1326096609_5_0" index="0" disallow="pedestrian tram rail_urban rail rail_electric rail_fast ship container cable_car subway aircraft wheelchair scooter drone" speed="8.50" length="16.07" shape="509.31,450.07 504.52,451.76 500.60,451.90 497.52,450.49 495.31,447.55"/>
    </edge>
    <edge id=":1326096609_6" function="internal">
        <lane id=":1326096609_6_0" index="0" disallow="pedestrian tram rail_urban rail rail_electric rail_fast ship container cable_car subway aircraft wheelchair scooter drone" speed="6.77" length="5.87" shape="498.19,446.16 499.55,447.98 501.42,448.85 502.96,448.80"/>
    </edge>
    <edge id=":1326096609_7" function="internal">
        <lane id=":1326096609_7_0" index="0" disallow="pedestrian tram rail_urban rail rail_electric rail_fast ship container cable_car subway aircraft wheelchair scooter drone" speed="13.89" length="18.28" shape="498.19,446.16 505.85,462.76"/>
    </edge>
    <edge id=":1326096609_8" function="internal">
        <lane id=":1326096609_8_0" index="0" disallow="pedestrian tram rail_urban rail rail_electric rail_fast ship container cable_car subway aircraft wheelchair scooter drone" speed="9.24" length="5.41" shape="498.19,446.16 499.25,450.25 499.19,451.44"/>
    </edge>
    <edge id=":1326096609_14" function="internal">
        <lane id=":1326096609_14_0" index="0" disallow="pedestrian tram rail_urban rail rail_electric rail_fast ship container cable_car subway aircraft wheelchair scooter drone" speed="6.77" length="3.93" shape="502.96,448.80 503.81,448.77 506.72,447.75"/>
    </edge>
    <edge id=":1326096609_15" function="internal">
        <lane id=":1326096609_15_0" index="0" disallow="pedestrian tram rail_urban rail rail_electric rail_fast ship container cable_car subway aircraft wheelchair scooter drone" speed="9.24" length="11.54" shape="499.19,451.44 499.02,454.77 497.61,458.90 495.13,461.84"/>
    </edge>
    <edge id=":1326096609_9" function="internal">
        <lane id=":1326096609_9_0" index="0" disallow="pedestrian tram rail_urban rail rail_electric rail_fast ship container cable_car subway aircraft wheelchair scooter drone" speed="8.16" length="13.04" shape="493.31,459.20 495.58,457.00 496.66,454.32 496.57,451.17 495.31,447.55"/>
    </edge>
    <edge id=":1326096609_10" function="internal">
        <lane id=":1326096609_10_0" index="0" disallow="pedestrian tram rail_urban rail rail_electric rail_fast ship container cable_car subway aircraft wheelchair scooter drone" speed="13.89" length="17.76" shape="493.31,459.20 497.34,455.83 499.74,453.01 502.28,450.42 506.72,447.75"/>
    </edge>
    <edge id=":1326096609_11" function="internal">
        <lane id=":1326096609_11_0" index="0" disallow="pedestrian tram rail_urban rail rail_electric rail_fast ship container cable_car subway aircraft wheelchair scooter drone" speed="7.85" length="15.62" shape="493.31,459.20 497.25,457.24 500.66,457.18 503.52,459.02 505.85,462.76"/>
    </edge>
    <edge id=":1326096609_c0" function="crossing" crossingEdges="-340373565#0 340373565#0">
        <lane id=":1326096609_c0_0" index="0" allow="pedestrian" speed="2.78" length="6.40" width="4.00" shape="506.51,460.28 500.65,462.86" outlineShape="507.32,462.11 501.46,464.69 500.81,463.52 500.07,462.72 499.21,462.28 498.26,462.20 498.13,462.24 499.85,461.02 505.71,458.45 506.22,458.23 506.45,459.67"/>
    </edge>
    <edge id=":1326096609_c1" function="crossing" crossingEdges="-420097204#0 420097204#0">
        <lane id=":1326096609_c1_0" index="0" allow="pedestrian" speed="2.78" length="6.54" width="4.00" shape="504.23,447.16 508.18,452.37" outlineShape="505.82,445.95 509.77,451.16 508.23,452.61 507.00,453.97 506.95,454.06 501.73,447.17 501.99,447.25 503.15,447.24 504.50,446.92"/>
    </edge>
    <edge id=":1326096609_c2" function="crossing" crossingEdges="340373565#1 -340373565#1">
        <lane id=":1326096609_c2_0" index="0" allow="pedestrian" speed="2.78" length="6.40" width="4.00" shape="494.73,450.04 500.50,447.27" outlineShape="493.87,448.24 499.64,445.47 499.73,445.42 499.64,445.47 500.23,446.36 501.02,446.96 501.99,447.25 503.15,447.24 501.37,449.07 495.60,451.85 495.07,452.10 494.69,450.31"/>
    </edge>
    <edge id=":1326096609_c3" function="crossing" crossingEdges="420097204#1 -420097204#1">
        <lane id=":1326096609_c3_0" index="0" allow="pedestrian" speed="2.78" length="6.40" width="4.00" shape="497.69,462.01 494.05,456.75" outlineShape="496.04,463.15 492.40,457.89 493.71,456.74 494.60,455.41 494.89,454.45 495.69,455.61 499.33,460.88 500.16,462.81 500.07,462.72 499.21,462.28 498.26,462.20 497.20,462.50"/>
    </edge>
    <edge id=":1326096609_w0" function="walkingarea">
        <lane id=":1326096609_w0_0" index="0" allow="pedestrian" speed="2.78" length="3.34" width="4.00" shape="496.04,463.15 497.18,464.80 499.63,465.49 501.46,464.69 500.81,463.52 500.07,462.72 499.21,462.28 498.26,462.20 497.20,462.50"/>
    </edge>
    <edge id=":1326096609_w1" function="walkingarea">
        <lane id=":1326096609_w1_0" index="0" allow="pedestrian" speed="2.78" length="7.14" width="4.00" shape="507.32,462.11 509.15,461.31 511.84,452.86 510.98,451.05 509.77,451.16 508.23,452.61 507.00,453.97 506.29,455.60 506.10,457.50 506.45,459.67"/>
    </edge>
    <edge id=":1326096609_w2" function="walkingarea">
        <lane id=":1326096609_w2_0" index="0" allow="pedestrian" speed="2.78" length="3.35" width="4.00" shape="505.82,445.95 505.04,446.78 504.19,444.97 501.44,444.60 499.64,445.47 500.23,446.36 501.02,446.96 501.99,447.25 503.15,447.24 504.50,446.92"/>
    </edge>
    <edge id=":1326096609_w3" function="walkingarea">
        <lane id=":1326096609_w3_0" index="0" allow="pedestrian" speed="2.78" length="5.90" width="4.00" shape="493.87,448.24 492.06,449.11 491.26,456.24 492.40,457.89 493.71,456.74 494.60,455.41 495.06,453.89 495.09,452.19 494.69,450.31"/>
    </edge>
    <edge id=":1326096629_0" function="internal">
        <lane id=":1326096629_0_0" index="0" disallow="pedestrian tram rail_urban rail rail_electric rail_fast ship container cable_car subway aircraft wheelchair scooter drone" speed="7.56" length="12.74" shape="524.13,504.39 524.84,507.38 524.17,510.01 522.13,512.26 518.71,514.16"/>
    </edge>
    <edge id=":1326096629_1" function="internal">
        <lane id=":1326096629_1_0" index="0" disallow="pedestrian tram rail_urban rail rail_electric rail_fast ship container cable_car subway aircraft wheelchair scooter drone" speed="5.96" length="7.53" shape="517.48,511.20 519.66,510.04 521.01,508.74 521.52,507.28 521.20,505.68"/>
    </edge>
    <edge id=":1326096629_w0" function="walkingarea">
        <lane id=":1326096629_w0_0" index="0" allow="pedestrian" speed="2.78" length="8.17" width="3.20" shape="519.74,506.32 517.91,507.12 516.86,509.72 518.09,512.68 519.32,515.63 527.43,502.94 525.60,503.75"/>
    </edge>
    <edge id=":1326096652_0" function="internal">
        <lane id=":1326096652_0_0" index="0" disallow="tram rail_urban rail rail_electric rail_fast ship container cable_car subway aircraft wheelchair scooter drone" speed="27.78" length="13.80" shape="332.99,574.33 331.68,571.02 330.34,567.96 328.89,564.96 327.24,561.80"/>
    </edge>
    <edge id=":1326096652_1" function="internal">
        <lane id=":1326096652_1_0" index="0" disallow="pedestrian tram rail_urban rail rail_electric rail_fast ship container cable_car subway aircraft wheelchair scooter drone" speed="7.89" length="4.12" shape="332.99,574.33 332.08,570.77 332.10,570.33"/>
    </edge>
    <edge id=":1326096652_6" function="internal">
        <lane id=":1326096652_6_0" index="0" disallow="pedestrian tram rail_urban rail rail_electric rail_fast ship container cable_car subway aircraft wheelchair scooter drone" speed="7.89" length="8.29" shape="332.10,570.33 332.25,567.78 333.52,565.36 335.88,563.51"/>
    </edge>
    <edge id=":1326096652_2" function="internal">
        <lane id=":1326096652_2_0" index="0" disallow="pedestrian tram rail_urban rail rail_electric rail_fast ship container cable_car subway aircraft wheelchair scooter drone" speed="6.36" length="7.73" shape="337.40,566.33 336.05,567.43 335.37,568.94 335.35,570.86 335.98,573.19"/>
    </edge>
    <edge id=":1326096652_3" function="internal">
        <lane id=":1326096652_3_0" index="0" disallow="pedestrian tram rail_urban rail rail_electric rail_fast ship container cable_car subway aircraft wheelchair scooter drone" speed="7.58" length="12.62" shape="337.40,566.33 334.52,567.25 331.86,566.81 329.44,564.99 327.24,561.80"/>
    </edge>
    <edge id=":1326096652_4" function="internal">
        <lane id=":1326096652_4_0" index="0" disallow="pedestrian tram rail_urban rail rail_electric rail_fast ship container cable_car subway aircraft wheelchair scooter drone" speed="5.99" length="7.49" shape="330.06,560.28 331.42,562.33 332.84,563.56 334.33,563.95 335.88,563.51"/>
    </edge>
    <edge id=":1326096652_5" function="internal">
        <lane id=":1326096652_5_0" index="0" disallow="tram rail_urban rail rail_electric rail_fast ship container cable_car subway aircraft wheelchair scooter drone" speed="27.78" length="14.21" shape="330.06,560.28 331.74,563.50 333.24,566.64 334.64,569.82 335.98,573.19"/>
    </edge>
    <edge id=":1326096652_w0" function="walkingarea">
        <lane id=":1326096652_w0_0" index="0" allow="pedestrian" speed="2.78" length="9.83" width="3.20" shape="335.12,562.10 334.18,560.34 331.47,559.53 328.65,561.04 325.83,562.56 331.50,574.90 334.49,573.76 337.48,572.62 339.10,569.50 338.15,567.74"/>
    </edge>
    <edge id=":1327210635_0" function="internal">
        <lane id=":1327210635_0_0" index="0" disallow="pedestrian tram rail_urban rail rail_electric rail_fast ship container cable_car subway aircraft wheelchair scooter drone" speed="6.52" length="9.07" shape="214.98,753.44 213.29,751.61 211.42,750.75 209.38,750.87 207.16,751.96"/>
    </edge>
    <edge id=":1327210635_1" function="internal">
        <lane id=":1327210635_1_0" index="0" disallow="pedestrian tram rail_urban rail rail_electric rail_fast ship container cable_car subway aircraft wheelchair scooter drone" speed="13.89" length="14.49" shape="214.98,753.44 206.83,741.46"/>
    </edge>
    <edge id=":1327210635_2" function="internal">
        <lane id=":1327210635_2_0" index="0" disallow="pedestrian tram rail_urban rail rail_electric rail_fast ship container cable_car subway aircraft wheelchair scooter drone" speed="7.99" length="14.25" shape="214.98,753.44 213.23,749.94 213.04,746.73 214.38,743.81 217.28,741.18"/>
    </edge>
    <edge id=":1327210635_3" function="internal">
        <lane id=":1327210635_3_0" index="0" disallow="pedestrian tram rail_urban rail rail_electric rail_fast ship container cable_car subway aircraft wheelchair scooter drone" speed="6.50" length="4.77" shape="219.07,743.83 217.23,745.50 216.38,747.36 216.39,747.60"/>
    </edge>
    <edge id=":1327210635_4" function="internal">
        <lane id=":1327210635_4_0" index="0" disallow="pedestrian tram rail_urban rail rail_electric rail_fast ship container cable_car subway aircraft wheelchair scooter drone" speed="13.89" length="14.42" shape="219.07,743.83 207.16,751.96"/>
    </edge>
    <edge id=":1327210635_5" function="internal">
        <lane id=":1327210635_5_0" index="0" disallow="pedestrian tram rail_urban rail rail_electric rail_fast ship container cable_car subway aircraft wheelchair scooter drone" speed="8.00" length="4.06" shape="219.07,743.83 215.56,745.54 215.41,745.55"/>
    </edge>
    <edge id=":1327210635_12" function="internal">
        <lane id=":1327210635_12_0" index="0" disallow="pedestrian tram rail_urban rail rail_electric rail_fast ship container cable_car subway aircraft wheelchair scooter drone" speed="6.50" length="4.28" shape="216.39,747.60 216.50,749.40 217.61,751.62"/>
    </edge>
    <edge id=":1327210635_13" function="internal">
        <lane id=":1327210635_13_0" index="0" disallow="pedestrian tram rail_urban rail rail_electric rail_fast ship container cable_car subway aircraft wheelchair scooter drone" speed="8.00" length="10.19" shape="215.41,745.55 212.35,745.72 209.44,744.36 206.83,741.46"/>
    </edge>
    <edge id=":1327210635_6" function="internal">
        <lane id=":1327210635_6_0" index="0" disallow="pedestrian tram rail_urban rail rail_electric rail_fast ship container cable_car subway aircraft wheelchair scooter drone" speed="6.51" length="9.06" shape="209.48,739.68 211.14,741.52 213.00,742.39 215.04,742.27 217.28,741.18"/>
    </edge>
    <edge id=":1327210635_7" function="internal">
        <lane id=":1327210635_7_0" index="0" disallow="pedestrian tram rail_urban rail rail_electric rail_fast ship container cable_car subway aircraft wheelchair scooter drone" speed="13.89" length="14.45" shape="209.48,739.68 217.61,751.62"/>
    </edge>
    <edge id=":1327210635_8" function="internal">
        <lane id=":1327210635_8_0" index="0" disallow="pedestrian tram rail_urban rail rail_electric rail_fast ship container cable_car subway aircraft wheelchair scooter drone" speed="8.04" length="14.22" shape="209.48,739.68 211.18,743.19 211.36,746.41 210.02,749.33 207.16,751.96"/>
    </edge>
    <edge id=":1327210635_9" function="internal">
        <lane id=":1327210635_9_0" index="0" disallow="pedestrian tram rail_urban rail rail_electric rail_fast ship container cable_car subway aircraft wheelchair scooter drone" speed="6.56" length="4.84" shape="205.35,749.33 207.17,747.64 208.03,745.77 208.01,745.48"/>
    </edge>
    <edge id=":1327210635_10" function="internal">
        <lane id=":1327210635_10_0" index="0" disallow="pedestrian tram rail_urban rail rail_electric rail_fast ship container cable_car subway aircraft wheelchair scooter drone" speed="13.89" length="14.45" shape="205.35,749.33 217.28,741.18"/>
    </edge>
    <edge id=":1327210635_11" function="internal">
        <lane id=":1327210635_11_0" index="0" disallow="pedestrian tram rail_urban rail rail_electric rail_fast ship container cable_car subway aircraft wheelchair scooter drone" speed="8.01" length="4.08" shape="205.35,749.33 208.83,747.60 209.03,747.59"/>
    </edge>
    <edge id=":1327210635_14" function="internal">
        <lane id=":1327210635_14_0" index="0" disallow="pedestrian tram rail_urban rail rail_electric rail_fast ship container cable_car subway aircraft wheelchair scooter drone" speed="6.56" length="4.27" shape="208.01,745.48 207.91,743.71 206.83,741.46"/>
    </edge>
    <edge id=":1327210635_15" function="internal">
        <lane id=":1327210635_15_0" index="0" disallow="pedestrian tram rail_urban rail rail_electric rail_fast ship container cable_car subway aircraft wheelchair scooter drone" speed="8.01" length="10.14" shape="209.03,747.59 212.03,747.41 214.96,748.75 217.61,751.62"/>
    </edge>
    <edge id=":1327210635_c0" function="crossing" crossingEdges="-420331802#1 420331802#1">
        <lane id=":1327210635_c0_0" index="0" allow="pedestrian" speed="2.78" length="6.40" width="4.00" shape="217.79,749.07 212.52,752.70" outlineShape="218.93,750.71 213.66,754.35 212.87,753.39 212.02,752.75 211.11,752.42 210.15,752.39 209.83,752.49 211.39,751.06 216.66,747.42 218.58,746.50 218.38,746.77 218.05,747.67 218.03,748.63 218.32,749.64"/>
    </edge>
    <edge id=":1327210635_c1" function="crossing" crossingEdges="420319841#3 -420319841#3">
        <lane id=":1327210635_c1_0" index="0" allow="pedestrian" speed="2.78" length="6.40" width="4.00" shape="214.72,740.98 218.31,746.28" outlineShape="216.38,739.86 219.97,745.15 219.02,745.93 218.38,746.77 218.05,747.67 218.03,748.63 218.12,748.95 216.66,747.40 213.07,742.10 212.15,740.18 212.42,740.38 213.32,740.72 214.28,740.74 215.30,740.45"/>
    </edge>
    <edge id=":1327210635_c2" function="crossing" crossingEdges="420331802#2 -420331802#2">
        <lane id=":1327210635_c2_0" index="0" allow="pedestrian" speed="2.78" length="6.40" width="4.00" shape="206.61,744.01 211.93,740.45" outlineShape="205.50,742.35 210.81,738.78 211.59,739.74 212.42,740.38 213.32,740.72 214.28,740.74 214.60,740.65 213.04,742.11 207.72,745.67 205.84,746.62 206.03,746.37 206.37,745.45 206.39,744.48 206.10,743.44"/>
    </edge>
    <edge id=":1327210635_c3" function="crossing" crossingEdges="-420319841#2 420319841#2">
        <lane id=":1327210635_c3_0" index="0" allow="pedestrian" speed="2.78" length="6.40" width="4.00" shape="209.72,752.15 206.09,746.88" outlineShape="208.07,753.28 204.44,748.01 205.39,747.22 206.03,746.37 206.37,745.45 206.39,744.48 206.30,744.18 207.74,745.74 211.36,751.02 212.28,752.95 212.02,752.75 211.11,752.42 210.15,752.39 209.14,752.68"/>
    </edge>
    <edge id=":1327210635_w0" function="walkingarea">
        <lane id=":1327210635_w0_0" index="0" allow="pedestrian" speed="2.78" length="3.32" width="4.00" shape="208.07,753.28 209.20,754.93 212.01,755.48 213.66,754.35 212.87,753.39 212.02,752.75 211.11,752.42 210.15,752.39 209.14,752.68"/>
    </edge>
    <edge id=":1327210635_w1" function="walkingarea">
        <lane id=":1327210635_w1_0" index="0" allow="pedestrian" speed="2.78" length="3.30" width="4.00" shape="218.93,750.71 220.57,749.58 221.09,746.81 219.97,745.15 219.02,745.93 218.38,746.77 218.05,747.67 218.03,748.63 218.32,749.64"/>
    </edge>
    <edge id=":1327210635_w2" function="walkingarea">
        <lane id=":1327210635_w2_0" index="0" allow="pedestrian" speed="2.78" length="3.31" width="4.00" shape="216.38,739.86 215.26,738.20 212.47,737.67 210.81,738.78 211.59,739.74 212.42,740.38 213.32,740.72 214.28,740.74 215.30,740.45"/>
    </edge>
    <edge id=":1327210635_w3" function="walkingarea">
        <lane id=":1327210635_w3_0" index="0" allow="pedestrian" speed="2.78" length="3.36" width="4.00" shape="205.50,742.35 203.84,743.46 203.31,746.36 204.44,748.01 205.39,747.22 206.03,746.37 206.37,745.45 206.39,744.48 206.10,743.44"/>
    </edge>
    <edge id=":1936511305_w0" function="walkingarea">
        <lane id=":1936511305_w0_0" index="0" allow="pedestrian" speed="2.78" length="3.20" width="6.40" shape="50.10,0.00 52.97,-1.42 47.23,1.42 50.10,-0.00"/>
    </edge>
    <edge id=":1936511423_0" function="internal">
        <lane id=":1936511423_0_0" index="0" disallow="tram rail_urban rail rail_electric rail_fast ship container cable_car subway aircraft wheelchair scooter drone" speed="6.61" length="9.15" shape="346.03,606.42 344.59,604.34 342.84,603.19 340.79,602.98 338.43,603.70"/>
    </edge>
    <edge id=":1936511423_1" function="internal">
        <lane id=":1936511423_1_0" index="0" disallow="tram rail_urban rail rail_electric rail_fast ship container cable_car subway aircraft wheelchair scooter drone" speed="27.78" length="14.90" shape="346.03,606.42 344.39,603.06 342.85,599.68 341.40,596.26 340.02,592.79"/>
    </edge>
    <edge id=":1936511423_2" function="internal">
        <lane id=":1936511423_2_0" index="0" disallow="tram rail_urban rail rail_electric rail_fast ship container cable_car subway aircraft wheelchair scooter drone" speed="8.01" length="4.16" shape="346.03,606.42 344.79,602.70 344.81,602.46"/>
    </edge>
    <edge id=":1936511423_12" function="internal">
        <lane id=":1936511423_12_0" index="0" disallow="tram rail_urban rail rail_electric rail_fast ship container cable_car subway aircraft wheelchair scooter drone" speed="8.01" length="10.28" shape="344.81,602.46 345.07,599.47 346.89,596.75 350.23,594.53"/>
    </edge>
    <edge id=":1936511423_3" function="internal">
        <lane id=":1936511423_3_0" index="0" disallow="tram rail_urban rail rail_electric rail_fast ship container cable_car subway aircraft wheelchair scooter drone" speed="6.52" length="9.20" shape="351.62,597.42 349.47,598.84 348.30,600.57 348.10,602.62 348.89,604.97"/>
    </edge>
    <edge id=":1936511423_4" function="internal">
        <lane id=":1936511423_4_0" index="0" disallow="tram rail_urban rail rail_electric rail_fast ship container cable_car subway aircraft wheelchair scooter drone" speed="25.00" length="14.61" shape="351.62,597.42 338.43,603.70"/>
    </edge>
    <edge id=":1936511423_5" function="internal">