<?xml version='1.0' encoding='utf-8'?>
<routes>
  <vType id="adult" vClass="pedestrian" minGap="0.25" width="0.5" length="0.25" maxSpeed="1.5" speedDev="0.1" />
  <vType id="elderly" vClass="pedestrian" minGap="0.25" width="0.5" length="0.25" maxSpeed="1.13" speedDev="0.15" color="255,0,0" />
  <person id="ped_0" depart="0.07" type="adult">
    <walk from="-377373674" to="-368834998#3" />
  </person>
  <person id="ped_1" depart="0.46" type="adult">
    <walk from="-377373674" to="-368834998#3" />
  </person>
  <person id="ped_2" depart="9.11" type="adult">
    <walk from="-377373674" to="-368834998#3" />
  </person>
  <person id="ped_3" depart="17.98" type="adult">
    <walk from="-377373674" to="-368834998#3" />
  </person>
  <person id="ped_4" depart="18.44" type="adult">
    <walk from="-377373674" to="-368834998#3" />
  </person>
  <person id="ped_5" depart="24.55" type="adult">
    <walk from="-377373674" to="-368834998#3" />
  </person>
  <person id="ped_6" depart="25.92" type="adult">
    <walk from="-377373674" to="-368834998#3" />
  </person>
  <person id="ped_7" depart="37.92" type="adult">
    <walk from="-377373674" to="-368834998#3" />
  </person>
  <person id="ped_8" depart="38.00" type="adult">
    <walk from="-377373674" to="-368834998#3" />
  </person>
  <person id="ped_9" depart="49.12" type="adult">
    <walk from="-377373674" to="-368834998#3" />
  </person>
  <person id="ped_10" depart="50.62" type="adult">
    <walk from="-377373674" to="-368834998#3" />
  </person>
  <person id="ped_11" depart="52.55" type="elderly">
    <walk from="-377373674" to="-368834998#3" />
  </person>
  <person id="ped_12" depart="62.54" type="adult">
    <walk from="-377373674" to="-368834998#3" />
  </person>
  <person id="ped_13" depart="62.66" type="adult">
    <walk from="-377373674" to="-368834998#3" />
  </person>
  <person id="ped_14" depart="66.51" type="elderly">
    <walk from="-377373674" to="-368834998#3" />
  </person>
  <person id="ped_15" depart="71.98" type="adult">
    <walk from="-377373674" to="-368834998#3" />
  </person>
  <person id="ped_16" depart="74.76" type="elderly">
    <walk from="-377373674" to="-368834998#3" />
  </person>
  <person id="ped_17" depart="75.36" type="adult">
    <walk from="-377373674" to="-368834998#3" />
  </person>
  <person id="ped_18" depart="83.00" type="adult">
    <walk from="-377373674" to="-368834998#3" />
  </person>
  <person id="ped_19" depart="100.07" type="adult">
    <walk from="-377373674" to="-368834998#3" />
  </person>
  <person id="ped_20" depart="113.39" type="adult">
    <walk from="-377373674" to="-368834998#3" />
  </person>
  <person id="ped_21" depart="113.89" type="adult">
    <walk from="-377373674" to="-368834998#3" />
  </person>
  <person id="ped_22" depart="126.47" type="adult">
    <walk from="-377373674" to="-368834998#3" />
  </person>
  <person id="ped_23" depart="129.88" type="adult">
    <walk from="-377373674" to="-368834998#3" />
  </person>
  <person id="ped_24" depart="132.30" type="adult">
    <walk from="-377373674" to="-368834998#3" />
  </person>
  <person id="ped_25" depart="147.34" type="adult">
    <walk from="-377373674" to="-368834998#3" />
  </person>
  <person id="ped_26" depart="155.39" type="adult">
    <walk from="-377373674" to="-368834998#3" />
  </person>
  <person id="ped_27" depart="162.45" type="adult">
    <walk from="-377373674" to="-368834998#3" />
  </person>
  <person id="ped_28" depart="164.40" type="adult">
    <walk from="-377373674" to="-368834998#3" />
  </person>
  <person id="ped_29" depart="165.92" type="adult">
    <walk from="-377373674" to="-368834998#3" />
  </person>
  <person id="ped_30" depart="175.04" type="adult">
    <walk from="-377373674" to="-368834998#3" />
  </person>
  <person id="ped_31" depart="177.85" type="adult">
    <walk from="-377373674" to="-368834998#3" />
  </person>
  <person id="ped_32" depart="181.79" type="elderly">
    <walk from="-377373674" to="-368834998#3" />
  </person>
  <person id="ped_33" depart="189.90" type="adult">
    <walk from="-377373674" to="-368834998#3" />
  </person>
  <person id="ped_34" depart="193.47" type="adult">
    <walk from="-377373674" to="-368834998#3" />
  </person>
  <person id="ped_35" depart="197.10" type="adult">
    <walk from="-377373674" to="-368834998#3" />
  </person>
  <person id="ped_36" depart="197.38" type="adult">
    <walk from="-377373674" to="-368834998#3" />
  </person>
  <person id="ped_37" depart="201.21" type="adult">
    <walk from="-377373674" to="-368834998#3" />
  </person>
  <person id="ped_38" depart="211.38" type="adult">
    <walk from="-377373674" to="-368834998#3" />
  </person>
  <person id="ped_39" depart="212.17" type="adult">
    <walk from="-377373674" to="-368834998#3" />
  </person>
  <person id="ped_40" depart="217.41" type="adult">
    <walk from="-377373674" to="-368834998#3" />
  </person>
  <person id="ped_41" depart="218.52" type="adult">
    <walk from="-377373674" to="-368834998#3" />
  </person>
  <person id="ped_42" depart="219.68" type="adult">
    <walk from="-377373674" to="-368834998#3" />
  </person>
  <person id="ped_43" depart="229.10" type="elderly">
    <walk from="-377373674" to="-368834998#3" />
  </person>
  <person id="ped_44" depart="231.74" type="adult">
    <walk from="-377373674" to="-368834998#3" />
  </person>
  <person id="ped_45" depart="232.41" type="adult">
    <walk from="-377373674" to="-368834998#3" />
  </person>
  <person id="ped_46" depart="235.25" type="adult">
    <walk from="-377373674" to="-368834998#3" />
  </person>
  <person id="ped_47" depart="239.42" type="adult">
    <walk from="-377373674" to="-368834998#3" />
  </person>
  <person id="ped_48" depart="241.19" type="elderly">
    <walk from="-377373674" to="-368834998#3" />
  </person>
  <person id="ped_49" depart="249.76" type="adult">
    <walk from="-377373674" to="-368834998#3" />
  </person>
  <person id="ped_50" depart="250.41" type="adult">
    <walk from="-377373674" to="-368834998#3" />
  </person>
  <person id="ped_51" depart="250.44" type="adult">
    <walk from="-377373674" to="-368834998#3" />
  </person>
  <person id="ped_52" depart="251.03" type="adult">
    <walk from="-377373674" to="-368834998#3" />
  </person>
  <person id="ped_53" depart="251.10" type="elderly">
    <walk from="-377373674" to="-368834998#3" />
  </person>
  <person id="ped_54" depart="254.44" type="elderly">
    <walk from="-377373674" to="-368834998#3" />
  </person>
  <person id="ped_55" depart="256.66" type="adult">
    <walk from="-377373674" to="-368834998#3" />
  </person>
  <person id="ped_56" depart="260.44" type="adult">
    <walk from="-377373674" to="-368834998#3" />
  </person>
  <person id="ped_57" depart="275.23" type="adult">
    <walk from="-377373674" to="-368834998#3" />
  </person>
  <person id="ped_58" depart="286.62" type="elderly">
    <walk from="-377373674" to="-368834998#3" />
  </person>
  <person id="ped_59" depart="287.36" type="adult">
    <walk from="-377373674" to="-368834998#3" />
  </person>
  <person id="ped_60" depart="299.30" type="adult">
    <walk from="-377373674" to="-368834998#3" />
  </person>
  <person id="ped_61" depart="313.89" type="adult">
    <walk from="-377373674" to="-368834998#3" />
  </person>
  <person id="ped_62" depart="318.91" type="adult">
    <walk from="-377373674" to="-368834998#3" />
  </person>
  <person id="ped_63" depart="319.64" type="elderly">
    <walk from="-377373674" to="-368834998#3" />
  </person>
  <person id="ped_64" depart="323.73" type="adult">
    <walk from="-377373674" to="-368834998#3" />
  </person>
  <person id="ped_65" depart="330.36" type="elderly">
    <walk from="-377373674" to="-368834998#3" />
  </person>
  <person id="ped_66" depart="345.25" type="elderly">
    <walk from="-377373674" to="-368834998#3" />
  </person>
  <person id="ped_67" depart="348.80" type="adult">
    <walk from="-377373674" to="-368834998#3" />
  </person>
  <person id="ped_68" depart="352.83" type="adult">
    <walk from="-377373674" to="-368834998#3" />
  </person>
  <person id="ped_69" depart="353.21" type="adult">
    <walk from="-377373674" to="-368834998#3" />
  </person>
  <person id="ped_70" depart="353.32" type="adult">
    <walk from="-377373674" to="-368834998#3" />
  </person>
  <person id="ped_71" depart="354.55" type="adult">
    <walk from="-377373674" to="-368834998#3" />
  </person>
  <person id="ped_72" depart="361.58" type="adult">
    <walk from="-377373674" to="-368834998#3" />
  </person>
  <person id="ped_73" depart="368.41" type="elderly">
    <walk from="-377373674" to="-368834998#3" />
  </person>
  <person id="ped_74" depart="372.21" type="adult">
    <walk from="-377373674" to="-368834998#3" />
  </person>
  <person id="ped_75" depart="372.70" type="adult">
    <walk from="-377373674" to="-368834998#3" />
  </person>
  <person id="ped_76" depart="376.64" type="adult">
    <walk from="-377373674" to="-368834998#3" />
  </person>
  <person id="ped_77" depart="386.35" type="adult">
    <walk from="-377373674" to="-368834998#3" />
  </person>
  <person id="ped_78" depart="389.91" type="adult">
    <walk from="-377373674" to="-368834998#3" />
  </person>
  <person id="ped_79" depart="396.20" type="adult">
    <walk from="-377373674" to="-368834998#3" />
  </person>
  <person id="ped_80" depart="398.68" type="adult">
    <walk from="-377373674" to="-368834998#3" />
  </person>
  <person id="ped_81" depart="402.12" type="adult">
    <walk from="-377373674" to="-368834998#3" />
  </person>
  <person id="ped_82" depart="406.17" type="adult">
    <walk from="-377373674" to="-368834998#3" />
  </person>
  <person id="ped_83" depart="414.11" type="adult">
    <walk from="-377373674" to="-368834998#3" />
  </person>
  <person id="ped_84" depart="416.10" type="adult">
    <walk from="-377373674" to="-368834998#3" />
  </person>
  <person id="ped_85" depart="417.77" type="adult">
    <walk from="-377373674" to="-368834998#3" />
  </person>
  <person id="ped_86" depart="420.81" type="adult">
    <walk from="-377373674" to="-368834998#3" />
  </person>
  <person id="ped_87" depart="424.59" type="elderly">
    <walk from="-377373674" to="-368834998#3" />
  </person>
  <person id="ped_88" depart="424.61" type="adult">
    <walk from="-377373674" to="-368834998#3" />
  </person>
  <person id="ped_89" depart="429.65" type="adult">
    <walk from="-377373674" to="-368834998#3" />
  </person>
  <person id="ped_90" depart="437.23" type="adult">
    <walk from="-377373674" to="-368834998#3" />
  </person>
  <person id="ped_91" depart="442.90" type="adult">
    <walk from="-377373674" to="-368834998#3" />
  </person>
  <person id="ped_92" depart="444.98" type="elderly">
    <walk from="-377373674" to="-368834998#3" />
  </person>
  <person id="ped_93" depart="451.81" type="adult">
    <walk from="-377373674" to="-368834998#3" />
  </person>
  <person id="ped_94" depart="452.47" type="adult">
    <walk from="-377373674" to="-368834998#3" />
  </person>
  <person id="ped_95" depart="452.54" type="elderly">
    <walk from="-377373674" to="-368834998#3" />
  </person>
  <person id="ped_96" depart="456.19" type="elderly">
    <walk from="-377373674" to="-368834998#3" />
  </person>
  <person id="ped_97" depart="458.00" type="adult">
    <walk from="-377373674" to="-368834998#3" />
  </person>
  <person id="ped_98" depart="467.20" type="adult">
    <walk from="-377373674" to="-368834998#3" />
  </person>
  <person id="ped_99" depart="467.89" type="adult">
    <walk from="-377373674" to="-368834998#3" />
  </person>
  <person id="ped_100" depart="471.33" type="adult">
    <walk from="-377373674" to="-368834998#3" />
  </person>
  <person id="ped_101" depart="488.33" type="adult">
    <walk from="-377373674" to="-368834998#3" />
  </person>
  <person id="ped_102" depart="500.51" type="adult">
    <walk from="-377373674" to="-368834998#3" />
  </person>
  <person id="ped_103" depart="510.91" type="adult">
    <walk from="-377373674" to="-368834998#3" />
  </person>
  <person id="ped_104" depart="513.89" type="adult">
    <walk from="-377373674" to="-368834998#3" />
  </person>
  <person id="ped_105" depart="521.04" type="adult">
    <walk from="-377373674" to="-368834998#3" />
  </person>
  <person id="ped_106" depart="526.96" type="adult">
    <walk from="-377373674" to="-368834998#3" />
  </person>
  <person id="ped_107" depart="527.13" type="adult">
    <walk from="-377373674" to="-368834998#3" />
  </person>
  <person id="ped_108" depart="536.05" type="adult">
    <walk from="-377373674" to="-368834998#3" />
  </person>
  <person id="ped_109" depart="536.29" type="adult">
    <walk from="-377373674" to="-368834998#3" />
  </person>
  <person id="ped_110" depart="539.32" type="adult">
    <walk from="-377373674" to="-368834998#3" />
  </person>
  <person id="ped_111" depart="548.65" type="elderly">
    <walk from="-377373674" to="-368834998#3" />
  </person>
  <person id="ped_112" depart="554.45" type="adult">
    <walk from="-377373674" to="-368834998#3" />
  </person>
  <person id="ped_113" depart="555.86" type="adult">
    <walk from="-377373674" to="-368834998#3" />
  </person>
  <person id="ped_114" depart="564.80" type="adult">
    <walk from="-377373674" to="-368834998#3" />
  </person>
  <person id="ped_115" depart="573.35" type="adult">
    <walk from="-377373674" to="-368834998#3" />
  </person>
  <person id="ped_116" depart="573.78" type="elderly">
    <walk from="-377373674" to="-368834998#3" />
  </person>
  <person id="ped_117" depart="576.93" type="adult">
    <walk from="-377373674" to="-368834998#3" />
  </person>
  <person id="ped_118" depart="579.39" type="adult">
    <walk from="-377373674" to="-368834998#3" />
  </person>
  <person id="ped_119" depart="581.00" type="elderly">
    <walk from="-377373674" to="-368834998#3" />
  </person>
  <person id="ped_120" depart="582.35" type="adult">
    <walk from="-377373674" to="-368834998#3" />
  </person>
  <person id="ped_121" depart="595.88" type="adult">
    <walk from="-377373674" to="-368834998#3" />
  </person>
  <person id="ped_122" depart="599.09" type="adult">
    <walk from="-377373674" to="-368834998#3" />
  </person>
  <person id="ped_123" depart="600.58" type="adult">
    <walk from="-377373674" to="-368834998#3" />
  </person>
  <person id="ped_124" depart="604.02" type="adult">
    <walk from="-377373674" to="-368834998#3" />
  </person>
  <person id="ped_125" depart="609.19" type="adult">
    <walk from="-377373674" to="-368834998#3" />
  </person>
  <person id="ped_126" depart="609.91" type="adult">
    <walk from="-377373674" to="-368834998#3" />
  </person>
  <person id="ped_127" depart="610.47" type="adult">
    <walk from="-377373674" to="-368834998#3" />
  </person>
  <person id="ped_128" depart="623.47" type="adult">
    <walk from="-377373674" to="-368834998#3" />
  </person>
  <person id="ped_129" depart="625.17" type="adult">
    <walk from="-377373674" to="-368834998#3" />
  </person>
  <person id="ped_130" depart="634.75" type="adult">
    <walk from="-377373674" to="-368834998#3" />
  </person>
  <person id="ped_131" depart="643.17" type="elderly">
    <walk from="-377373674" to="-368834998#3" />
  </person>
  <person id="ped_132" depart="654.44" type="adult">
    <walk from="-377373674" to="-368834998#3" />
  </person>
  <person id="ped_133" depart="654.46" type="adult">
    <walk from="-377373674" to="-368834998#3" />
  </person>
  <person id="ped_134" depart="656.88" type="adult">
    <walk from="-377373674" to="-368834998#3" />
  </person>
  <person id="ped_135" depart="681.53" type="adult">
    <walk from="-377373674" to="-368834998#3" />
  </person>
  <person id="ped_136" depart="685.44" type="adult">
    <walk from="-377373674" to="-368834998#3" />
  </person>
  <person id="ped_137" depart="690.08" type="adult">
    <walk from="-377373674" to="-368834998#3" />
  </person>
  <person id="ped_138" depart="695.41" type="adult">
    <walk from="-377373674" to="-368834998#3" />
  </person>
  <person id="ped_139" depart="703.16" type="adult">
    <walk from="-377373674" to="-368834998#3" />
  </person>
  <person id="ped_140" depart="711.23" type="elderly">
    <walk from="-377373674" to="-368834998#3" />
  </person>
  <person id="ped_141" depart="711.97" type="adult">
    <walk from="-377373674" to="-368834998#3" />
  </person>
  <person id="ped_142" depart="713.57" type="adult">
    <walk from="-377373674" to="-368834998#3" />
  </person>
  <person id="ped_143" depart="716.06" type="elderly">
    <walk from="-377373674" to="-368834998#3" />
  </person>
  <person id="ped_144" depart="717.17" type="elderly">
    <walk from="-377373674" to="-368834998#3" />
  </person>
  <person id="ped_145" depart="719.15" type="elderly">
    <walk from="-377373674" to="-368834998#3" />
  </person>
  <person id="ped_146" depart="722.52" type="adult">
    <walk from="-377373674" to="-368834998#3" />
  </person>
  <person id="ped_147" depart="725.60" type="elderly">
    <walk from="-377373674" to="-368834998#3" />
  </person>
  <person id="ped_148" depart="758.17" type="adult">
    <walk from="-377373674" to="-368834998#3" />
  </person>
  <person id="ped_149" depart="762.51" type="adult">
    <walk from="-377373674" to="-368834998#3" />
  </person>
  <person id="ped_150" depart="762.57" type="adult">
    <walk from="-377373674" to="-368834998#3" />
  </person>
  <person id="ped_151" depart="772.41" type="adult">
    <walk from="-377373674" to="-368834998#3" />
  </person>
  <person id="ped_152" depart="784.56" type="adult">
    <walk from="-377373674" to="-368834998#3" />
  </person>
  <person id="ped_153" depart="793.78" type="adult">
    <walk from="-377373674" to="-368834998#3" />
  </person>
  <person id="ped_154" depart="798.31" type="adult">
    <walk from="-377373674" to="-368834998#3" />
  </person>
  <person id="ped_155" depart="800.36" type="adult">
    <walk from="-377373674" to="-368834998#3" />
  </person>
  <person id="ped_156" depart="808.07" type="adult">
    <walk from="-377373674" to="-368834998#3" />
  </person>
  <person id="ped_157" depart="823.90" type="adult">
    <walk from="-377373674" to="-368834998#3" />
  </person>
  <person id="ped_158" depart="824.65" type="adult">
    <walk from="-377373674" to="-368834998#3" />
  </person>
  <person id="ped_159" depart="829.34" type="adult">
    <walk from="-377373674" to="-368834998#3" />
  </person>
  <person id="ped_160" depart="830.67" type="adult">
    <walk from="-377373674" to="-368834998#3" />
  </person>
  <person id="ped_161" depart="840.74" type="adult">
    <walk from="-377373674" to="-368834998#3" />
  </person>
  <person id="ped_162" depart="846.06" type="adult">
    <walk from="-377373674" to="-368834998#3" />
  </person>
  <person id="ped_163" depart="847.02" type="elderly">
    <walk from="-377373674" to="-368834998#3" />
  </person>
  <person id="ped_164" depart="850.28" type="adult">
    <walk from="-377373674" to="-368834998#3" />
  </person>
  <person id="ped_165" depart="870.64" type="adult">
    <walk from="-377373674" to="-368834998#3" />
  </person>
  <person id="ped_166" depart="871.63" type="elderly">
    <walk from="-377373674" to="-368834998#3" />
  </person>
  <person id="ped_167" depart="872.06" type="adult">
    <walk from="-377373674" to="-368834998#3" />
  </person>
  <person id="ped_168" depart="872.98" type="adult">
    <walk from="-377373674" to="-368834998#3" />
  </person>
  <person id="ped_169" depart="874.02" type="adult">
    <walk from="-377373674" to="-368834998#3" />
  </person>
  <person id="ped_170" depart="884.77" type="elderly">
    <walk from="-377373674" to="-368834998#3" />
  </person>
  <person id="ped_171" depart="897.23" type="adult">
    <walk from="-377373674" to="-368834998#3" />
  </person>
  <person id="ped_172" depart="898.37" type="adult">
    <walk from="-377373674" to="-368834998#3" />
  </person>
  <person id="ped_173" depart="900.03" type="elderly">
    <walk from="-377373674" to="-368834998#3" />
  </person>
  <person id="ped_174" depart="901.95" type="elderly">
    <walk from="-377373674" to="-368834998#3" />
  </person>
  <person id="ped_175" depart="906.97" type="adult">
    <walk from="-377373674" to="-368834998#3" />
  </person>
  <person id="ped_176" depart="907.26" type="adult">
    <walk from="-377373674" to="-368834998#3" />
  </person>
  <person id="ped_177" depart="908.20" type="adult">
    <walk from="-377373674" to="-368834998#3" />
  </person>
  <person id="ped_178" depart="913.11" type="elderly">
    <walk from="-377373674" to="-368834998#3" />
  </person>
  <person id="ped_179" depart="915.70" type="elderly">
    <walk from="-377373674" to="-368834998#3" />
  </person>
  <person id="ped_180" depart="920.37" type="adult">
    <walk from="-377373674" to="-368834998#3" />
  </person>
  <person id="ped_181" depart="926.05" type="adult">
    <walk from="-377373674" to="-368834998#3" />
  </person>
  <person id="ped_182" depart="931.13" type="adult">
    <walk from="-377373674" to="-368834998#3" />
  </person>
  <person id="ped_183" depart="933.80" type="adult">
    <walk from="-377373674" to="-368834998#3" />
  </person>
  <person id="ped_184" depart="939.95" type="adult">
    <walk from="-377373674" to="-368834998#3" />
  </person>
  <person id="ped_185" depart="941.40" type="adult">
    <walk from="-377373674" to="-368834998#3" />
  </person>
  <person id="ped_186" depart="941.68" type="adult">
    <walk from="-377373674" to="-368834998#3" />
  </person>
  <person id="ped_187" depart="953.58" type="adult">
    <walk from="-377373674" to="-368834998#3" />
  </person>
  <person id="ped_188" depart="956.57" type="adult">
    <walk from="-377373674" to="-368834998#3" />
  </person>
  <person id="ped_189" depart="958.49" type="adult">
    <walk from="-377373674" to="-368834998#3" />
  </person>
  <person id="ped_190" depart="959.45" type="adult">
    <walk from="-377373674" to="-368834998#3" />
  </person>
  <person id="ped_191" depart="959.65" type="adult">
    <walk from="-377373674" to="-368834998#3" />
  </person>
  <person id="ped_192" depart="962.21" type="adult">
    <walk from="-377373674" to="-368834998#3" />
  </person>
  <person id="ped_193" depart="963.83" type="elderly">
    <walk from="-377373674" to="-368834998#3" />
  </person>
  <person id="ped_194" depart="975.70" type="adult">
    <walk from="-377373674" to="-368834998#3" />
  </person>
  <person id="ped_195" depart="986.95" type="adult">
    <walk from="-377373674" to="-368834998#3" />
  </person>
  <person id="ped_196" depart="989.20" type="adult">
    <walk from="-377373674" to="-368834998#3" />
  </person>
  <person id="ped_197" depart="994.14" type="elderly">
    <walk from="-377373674" to="-368834998#3" />
  </person>
  <person id="ped_198" depart="997.01" type="elderly">
    <walk from="-377373674" to="-368834998#3" />
  </person>
  <person id="ped_199" depart="998.61" type="adult">
    <walk from="-377373674" to="-368834998#3" />
  </person>
  <person id="ped_200" depart="998.72" type="adult">
    <walk from="-377373674" to="-368834998#3" />
  </person>
  <person id="ped_201" depart="999.61" type="adult">
    <walk from="-377373674" to="-368834998#3" />
  </person>
  <person id="ped_202" depart="1002.26" type="adult">
    <walk from="-377373674" to="-368834998#3" />
  </person>
  <person id="ped_203" depart="1008.43" type="adult">
    <walk from="-377373674" to="-368834998#3" />
  </person>
  <person id="ped_204" depart="1013.06" type="adult">
    <walk from="-377373674" to="-368834998#3" />
  </person>
  <person id="ped_205" depart="1020.07" type="adult">
    <walk from="-377373674" to="-368834998#3" />
  </person>
  <person id="ped_206" depart="1023.22" type="adult">
    <walk from="-377373674" to="-368834998#3" />
  </person>
  <person id="ped_207" depart="1030.42" type="adult">
    <walk from="-377373674" to="-368834998#3" />
  </person>
  <person id="ped_208" depart="1045.61" type="adult">
    <walk from="-377373674" to="-368834998#3" />
  </person>
  <person id="ped_209" depart="1050.33" type="adult">
    <walk from="-377373674" to="-368834998#3" />
  </person>
  <person id="ped_210" depart="1051.06" type="adult">
    <walk from="-377373674" to="-368834998#3" />
  </person>
  <person id="ped_211" depart="1055.52" type="adult">
    <walk from="-377373674" to="-368834998#3" />
  </person>
  <person id="ped_212" depart="1062.81" type="adult">
    <walk from="-377373674" to="-368834998#3" />
  </person>
  <person id="ped_213" depart="1070.78" type="adult">
    <walk from="-377373674" to="-368834998#3" />
  </person>
  <person id="ped_214" depart="1071.54" type="adult">
    <walk from="-377373674" to="-368834998#3" />
  </person>
  <person id="ped_215" depart="1072.76" type="adult">
    <walk from="-377373674" to="-368834998#3" />
  </person>
  <person id="ped_216" depart="1077.81" type="adult">
    <walk from="-377373674" to="-368834998#3" />
  </person>
  <person id="ped_217" depart="1078.43" type="elderly">
    <walk from="-377373674" to="-368834998#3" />
  </person>
  <person id="ped_218" depart="1105.30" type="adult">
    <walk from="-377373674" to="-368834998#3" />
  </person>
  <person id="ped_219" depart="1107.08" type="adult">
    <walk from="-377373674" to="-368834998#3" />
  </person>
  <person id="ped_220" depart="1107.38" type="adult">
    <walk from="-377373674" to="-368834998#3" />
  </person>
  <person id="ped_221" depart="1128.81" type="adult">
    <walk from="-377373674" to="-368834998#3" />
  </person>
  <person id="ped_222" depart="1135.50" type="adult">
    <walk from="-377373674" to="-368834998#3" />
  </person>
  <person id="ped_223" depart="1138.33" type="elderly">
    <walk from="-377373674" to="-368834998#3" />
  </person>
  <person id="ped_224" depart="1143.27" type="adult">
    <walk from="-377373674" to="-368834998#3" />
  </person>
  <person id="ped_225" depart="1156.12" type="adult">
    <walk from="-377373674" to="-368834998#3" />
  </person>
  <person id="ped_226" depart="1158.73" type="adult">
    <walk from="-377373674" to="-368834998#3" />
  </person>
  <person id="ped_227" depart="1161.09" type="adult">
    <walk from="-377373674" to="-368834998#3" />
  </person>
  <person id="ped_228" depart="1172.07" type="adult">
    <walk from="-377373674" to="-368834998#3" />
  </person>
  <person id="ped_229" depart="1174.26" type="adult">
    <walk from="-377373674" to="-368834998#3" />
  </person>
  <person id="ped_230" depart="1175.14" type="adult">
    <walk from="-377373674" to="-368834998#3" />
  </person>
  <person id="ped_231" depart="1180.37" type="elderly">
    <walk from="-377373674" to="-368834998#3" />
  </person>
  <person id="ped_232" depart="1189.68" type="adult">
    <walk from="-377373674" to="-368834998#3" />
  </person>
  <person id="ped_233" depart="1194.16" type="adult">
    <walk from="-377373674" to="-368834998#3" />
  </person>
  <person id="ped_234" depart="1199.23" type="adult">
    <walk from="-377373674" to="-368834998#3" />
  </person>
  <person id="ped_235" depart="1203.26" type="adult">
    <walk from="-377373674" to="-368834998#3" />
  </person>
  <person id="ped_236" depart="1206.94" type="adult">
    <walk from="-377373674" to="-368834998#3" />
  </person>
  <person id="ped_237" depart="1226.37" type="adult">
    <walk from="-377373674" to="-368834998#3" />
  </person>
  <person id="ped_238" depart="1229.65" type="adult">
    <walk from="-377373674" to="-368834998#3" />
  </person>
  <person id="ped_239" depart="1239.54" type="adult">
    <walk from="-377373674" to="-368834998#3" />
  </person>
  <person id="ped_240" depart="1247.54" type="adult">
    <walk from="-377373674" to="-368834998#3" />
  </person>
  <person id="ped_241" depart="1248.41" type="adult">
    <walk from="-377373674" to="-368834998#3" />
  </person>
  <person id="ped_242" depart="1257.69" type="elderly">
    <walk from="-377373674" to="-368834998#3" />
  </person>
  <person id="ped_243" depart="1262.57" type="elderly">
    <walk from="-377373674" to="-368834998#3" />
  </person>
  <person id="ped_244" depart="1263.69" type="adult">
    <walk from="-377373674" to="-368834998#3" />
  </person>
  <person id="ped_245" depart="1264.46" type="adult">
    <walk from="-377373674" to="-368834998#3" />
  </person>
  <person id="ped_246" depart="1266.59" type="adult">
    <walk from="-377373674" to="-368834998#3" />
  </person>
  <person id="ped_247" depart="1271.61" type="adult">
    <walk from="-377373674" to="-368834998#3" />
  </person>
  <person id="ped_248" depart="1286.39" type="adult">
    <walk from="-377373674" to="-368834998#3" />
  </person>
  <person id="ped_249" depart="1286.44" type="adult">
    <walk from="-377373674" to="-368834998#3" />
  </person>
  <person id="ped_250" depart="1290.92" type="adult">
    <walk from="-377373674" to="-368834998#3" />
  </person>
  <person id="ped_251" depart="1298.63" type="adult">
    <walk from="-377373674" to="-368834998#3" />
  </person>
  <person id="ped_252" depart="1300.94" type="adult">
    <walk from="-377373674" to="-368834998#3" />
  </person>
  <person id="ped_253" depart="1306.42" type="adult">
    <walk from="-377373674" to="-368834998#3" />
  </person>
  <person id="ped_254" depart="1307.75" type="adult">
    <walk from="-377373674" to="-368834998#3" />
  </person>
  <person id="ped_255" depart="1308.45" type="adult">
    <walk from="-377373674" to="-368834998#3" />
  </person>
  <person id="ped_256" depart="1311.39" type="adult">
    <walk from="-377373674" to="-368834998#3" />
  </person>
  <person id="ped_257" depart="1315.37" type="adult">
    <walk from="-377373674" to="-368834998#3" />
  </person>
  <person id="ped_258" depart="1327.04" type="elderly">
    <walk from="-377373674" to="-368834998#3" />
  </person>
  <person id="ped_259" depart="1331.43" type="elderly">
    <walk from="-377373674" to="-368834998#3" />
  </person>
  <person id="ped_260" depart="1339.36" type="adult">