<?xml version="1.0" encoding="UTF-8"?>

<!-- generated on 2026-04-17 02:51:11.559819 by Eclipse SUMO randomTrips.py v1.26.0
<configuration>
    <net-file value="/Users/junlee/Desktop/2026-1/js/result/tradeoff_pet_top12_seed12_60min_20260417_024953/sumo_nets/cw_9628/network.net.xml"/>
    <output-trip-file value="/Users/junlee/Desktop/2026-1/js/result/tradeoff_pet_top12_seed12_60min_20260417_024953/sumo_nets/cw_9628/routes_seed44.trips.xml"/>
    <route-file value="/Users/junlee/Desktop/2026-1/js/result/tradeoff_pet_top12_seed12_60min_20260417_024953/sumo_nets/cw_9628/routes_seed44.rou.xml"/>
    <vehicle-class value="passenger"/>
    <seed value="44"/>
    <period value="1.7218767440302591"/>
</configuration>
-->

<!-- generated on 2026-04-17T02:51:11.515210+09:00 by Eclipse SUMO duarouter 1.26.0
<duarouterConfiguration xmlns:xsi="http://www.w3.org/2001/XMLSchema-instance" xsi:noNamespaceSchemaLocation="http://sumo.dlr.de/xsd/duarouterConfiguration.xsd">

    <input>
        <net-file value="/Users/junlee/Desktop/2026-1/js/result/tradeoff_pet_top12_seed12_60min_20260417_024953/sumo_nets/cw_9628/network.net.xml"/>
        <route-files value="/Users/junlee/Desktop/2026-1/js/result/tradeoff_pet_top12_seed12_60min_20260417_024953/sumo_nets/cw_9628/routes_seed44.trips.xml"/>
    </input>

    <output>
        <output-file value="/Users/junlee/Desktop/2026-1/js/result/tradeoff_pet_top12_seed12_60min_20260417_024953/sumo_nets/cw_9628/routes_seed44.rou.xml"/>
        <alternatives-output value="NUL"/>
    </output>

    <time>
        <begin value="0.0"/>
        <end value="3600.0"/>
    </time>

    <report>
        <no-warnings value="true"/>
        <ignore-errors value="true"/>
        <no-step-log value="true"/>
    </report>

</duarouterConfiguration>
-->

<routes xmlns:xsi="http://www.w3.org/2001/XMLSchema-instance" xsi:noNamespaceSchemaLocation="http://sumo.dlr.de/xsd/routes_file.xsd">
    <vType id="passenger" vClass="passenger"/>
    <vehicle id="0" type="passenger" depart="0.00">
        <route edges="1110155154#0 1110155154#1 -464240154#3 -464240154#2 328442821 224260206#3 224260206#4 224260206#5 224260206#6 1113247891#6"/>
    </vehicle>
    <vehicle id="1" type="passenger" depart="1.72">
        <route edges="377373715#2 -377373713#0 -377373722#0 368834998#1 -377373577#2 377373710#0 377373710#1 -377373583#1 -377373582#1"/>
    </vehicle>
    <vehicle id="2" type="passenger" depart="3.44">
        <route edges="-377373638#0 377373722#3 377373722#4 1113247891#2 1113247891#3 1113247891#4 1113247891#5 -224260206#6 -224260206#5 -224260206#4"/>
    </vehicle>
    <vehicle id="3" type="passenger" depart="5.17">
        <route edges="-377373578 1110186416#1 -377373943#1 464419346 -377373584#1 -464399098#3 -464399098#2 -464399099 -377373710#1 -377373710#0 377373577#2 368834998#2 368834998#3 368834998#4 515561247 -224260206#6 -224260206#5 -224260206#4 -224260206#3 -224260206#2 -224260206#1"/>
    </vehicle>
    <vehicle id="4" type="passenger" depart="6.89">
        <route edges="-377373582#0 377373577#1 377373577#2 -368834998#1 377373722#0 377373722#1 377373722#3 377373722#4 1113247891#2"/>
    </vehicle>
    <vehicle id="5" type="passenger" depart="8.61">
        <route edges="-464399098#3 -464399098#2"/>
    </vehicle>
    <vehicle id="6" type="passenger" depart="10.33">
        <route edges="377373579#2 -377373638#1 -377373638#0 -377373722#1 377373713#0 -377373715#2"/>
    </vehicle>
    <vehicle id="7" type="passenger" depart="12.05">
        <route edges="-368834998#2 -377373577#2 377373710#0 377373710#1"/>
    </vehicle>
    <vehicle id="8" type="passenger" depart="13.78">
        <route edges="368834998#2 -377373699 -377373713#1 -377373713#0 -377373722#0 368834998#1 -377373577#2 -377373577#1 -377373577#0"/>
    </vehicle>
    <vehicle id="9" type="passenger" depart="15.50">
        <route edges="-368834998#1 377373722#0 377373722#1 377373722#3 377373722#4 1113247891#2 1113247891#3 1113247891#4 1113247891#5 1113247891#6 -368834998#4"/>
    </vehicle>
    <vehicle id="10" type="passenger" depart="17.22">
        <route edges="464419346 -377373584#1 -464399098#3 -464399098#2 -464399099 -377373710#1 -377373710#0 377373577#2 -368834998#1 377373722#0 377373722#1 -377373556#1"/>
    </vehicle>
    <vehicle id="11" type="passenger" depart="18.94">
        <route edges="-224260206#6 -224260206#5 -224260206#4 -224260206#3 -328442821 -464240154#1 328442817 224260206#2 224260206#3 224260206#4 224260206#5 224260206#6 1110155154#0 1110155154#1 -464240154#3 -464240154#2"/>
    </vehicle>
    <vehicle id="12" type="passenger" depart="20.66">
        <route edges="1113247891#2 1113247891#3 1113247891#4 1113247891#5 -224260206#6 -224260206#5 -224260206#4 -224260206#3 -328442821 464240154#2"/>
    </vehicle>
    <vehicle id="13" type="passenger" depart="22.38">
        <route edges="-377373584#1 -464399098#3 -464399098#2 -464399099 -377373710#1 -377373710#0 377373577#2 -368834998#1 377373722#0 377373722#1 -377373556#1 -377373579#3 -377373638#1"/>
    </vehicle>
    <vehicle id="14" type="passenger" depart="24.11">
        <route edges="-377373675 -377373579#1 -377373579#0 1456415046#1 1113247891#2 1113247891#3 1113247891#4 1113247891#5 -224260206#6 -224260206#5 -224260206#4 -224260206#3 -224260206#2 -328442817"/>
    </vehicle>
    <vehicle id="15" type="passenger" depart="25.83">
        <route edges="377373579#0 377373579#1 377373579#2 -377373638#1 -377373638#0 -377373722#1 -377373722#0 368834998#1 -377373577#2 377373710#0 377373695"/>
    </vehicle>
    <vehicle id="16" type="passenger" depart="27.55">
        <route edges="377373583#0 377373583#1 377373583#2"/>
    </vehicle>
    <vehicle id="17" type="passenger" depart="29.27">
        <route edges="377373577#0 377373577#1 377373577#2 368834998#2 -377373699 -377373713#1 -377373715#2"/>
    </vehicle>
    <vehicle id="18" type="passenger" depart="30.99">
        <route edges="377373710#1 377373583#2 464399098#0 -464399099 -377373710#1 -377373710#0 377373577#2 368834998#2 368834998#3 368834998#4 515561247 1110155154#0 1110155154#1 1110155154#2 1489021496 328442840#0 328442840#1"/>
    </vehicle>
    <vehicle id="19" type="passenger" depart="32.72">
        <route edges="328442821 224260206#3 224260206#4 224260206#5 224260206#6 1113247891#6"/>
    </vehicle>
    <vehicle id="20" type="passenger" depart="34.44">
        <route edges="-377373638#1 -377373638#0 377373722#3 377373722#4 1113247891#2 1113247891#3 1110186418 1110155154#2 1110155154#3"/>
    </vehicle>
    <vehicle id="21" type="passenger" depart="36.16">
        <route edges="377373638#1 -377373579#2 -377373579#1 -377373579#0 1456415046#1 1113247891#2 1113247891#3 1113247891#4 1113247891#5 1113247891#6 1110186416#0 377373578"/>
    </vehicle>
    <vehicle id="22" type="passenger" depart="37.88">
        <route edges="-464240154#1 328442817 224260206#2 224260206#3 224260206#4 224260206#5 224260206#6 1113247891#6 1110186416#0 377373578 -377373583#2 -377373710#1 377373695"/>
    </vehicle>
    <vehicle id="23" type="passenger" depart="39.60">
        <route edges="377373713#0 -377373715#2 -377373715#1 1113247891#3 1113247891#4 1113247891#5 -224260206#6"/>
    </vehicle>
    <vehicle id="24" type="passenger" depart="41.33">
        <route edges="-224260206#3 -328442821 -464240154#1 328442817 224260206#2 224260206#3 224260206#4 224260206#5 224260206#6 1113247891#6 1110186416#0 377373578 464399098#0 464399098#2 464399098#3 377373584#1"/>
    </vehicle>
    <vehicle id="25" type="passenger" depart="43.05">
        <route edges="377373556#1 377373722#3 377373722#4 1113247891#2 1113247891#3 1113247891#4 1113247891#5 1113247891#6"/>
    </vehicle>
    <vehicle id="26" type="passenger" depart="44.77">
        <route edges="516169308#3 -368834998#4 -368834998#3 -377373699 -377373642 -377373715#1 1113247891#3 1113247891#4 1113247891#5 1113247891#6 1110186416#0 1110186416#1 -377373943#1 -377373943#0"/>
    </vehicle>
    <vehicle id="27" type="passenger" depart="46.49">
        <route edges="-377373584#3 -377373584#2 -377373584#1 -464399098#3 -464399098#2 -464399099 -377373710#1 -377373710#0 377373577#2 -368834998#1 377373722#0 377373722#1 -377373556#1"/>
    </vehicle>
    <vehicle id="28" type="passenger" depart="48.21">
        <route edges="-464240154#1 328442817 224260206#2 224260206#3 224260206#4 224260206#5 224260206#6 1113247891#6 -368834998#4 -368834998#3 -368834998#2 -377373577#2 377373710#0 377373710#1"/>
    </vehicle>
    <vehicle id="29" type="passenger" depart="49.93">
        <route edges="368834998#3 368834998#4 1110186416#0 377373578 -377373583#2 -377373710#1 -377373710#0 -377373577#1"/>
    </vehicle>
    <vehicle id="30" type="passenger" depart="51.66">
        <route edges="-377373583#3 -377373583#2 -377373710#1 -377373710#0 377373577#2 368834998#2"/>
    </vehicle>
    <vehicle id="31" type="passenger" depart="53.38">
        <route edges="377373710#1 377373583#2 464399098#0 -464399099 -377373710#1 -377373710#0 377373577#2 368834998#2 368834998#3 368834998#4 515561247 1110155154#0 1110155154#1 1110155154#2 1489021496 328442840#0"/>
    </vehicle>
    <vehicle id="32" type="passenger" depart="55.10">
        <route edges="-377373713#3 377373699 368834998#3"/>
    </vehicle>
    <vehicle id="33" type="passenger" depart="56.82">
        <route edges="-377373710#1 -377373710#0 377373577#2 368834998#2 368834998#3 368834998#4 515561247 -224260206#6 -224260206#5 -224260206#4 -224260206#3 -224260206#2 -224260206#1"/>
    </vehicle>
    <vehicle id="34" type="passenger" depart="58.54">
        <route edges="368834998#3 368834998#4 1110186416#0 377373578 -377373583#2"/>
    </vehicle>
    <vehicle id="35" type="passenger" depart="60.27">
        <route edges="377373713#0 377373713#1 377373699 -368834998#2 -377373577#2 377373710#0"/>
    </vehicle>
    <vehicle id="36" type="passenger" depart="61.99">
        <route edges="-377373713#0 -377373722#0 368834998#1 368834998#2 368834998#3 368834998#4 515561247"/>
    </vehicle>
    <vehicle id="37" type="passenger" depart="63.71">
        <route edges="1456415046#0 1456415046#1 1113247891#2 377373715#1"/>
    </vehicle>
    <vehicle id="38" type="passenger" depart="65.43">
        <route edges="1113247891#3 1113247891#4 1113247891#5 1113247891#6 -368834998#4 -368834998#3 -377373699"/>
    </vehicle>
    <vehicle id="39" type="passenger" depart="67.15">
        <route edges="-377373715#1 1113247891#3 1113247891#4 1113247891#5 1113247891#6 1110186416#0 1110186416#1 -377373943#1 464419346 -377373584#1 -464399098#3 -464399098#2"/>
    </vehicle>
    <vehicle id="40" type="passenger" depart="68.88">
        <route edges="224260206#1 224260206#2 224260206#3 224260206#4 224260206#5 224260206#6 1113247891#6 1110186416#0 377373578 464399098#0 464399098#2 464399098#3"/>
    </vehicle>
    <vehicle id="41" type="passenger" depart="70.60">
        <route edges="-368834998#2 -368834998#1 377373722#0 377373722#1 377373722#3 -377373612#1 -377373612#0 -377373638#0"/>
    </vehicle>
    <vehicle id="42" type="passenger" depart="72.32">
        <route edges="-368834998#2 -368834998#1 377373722#0 377373713#0 377373713#1 377373699 368834998#3 368834998#4 515561247 1110155154#0 1110155154#1"/>
    </vehicle>
    <vehicle id="43" type="passenger" depart="74.04">
        <route edges="377373577#0 377373577#1 377373577#2 368834998#2 368834998#3 368834998#4 515561247 -224260206#6 -224260206#5 -224260206#4 -224260206#3 -224260206#2 -328442817 464240154#1"/>
    </vehicle>
    <vehicle id="44" type="passenger" depart="75.76">
        <route edges="-368834998#3 -368834998#2 -377373577#2 377373710#0 377373710#1 464399099 464399098#2 464399098#3 377373584#1 -464419346 377373943#1"/>
    </vehicle>
    <vehicle id="45" type="passenger" depart="77.48">
        <route edges="-377373675 377373579#2"/>
    </vehicle>
    <vehicle id="46" type="passenger" depart="79.21">
        <route edges="224260206#3 224260206#4 224260206#5 224260206#6 1113247891#6 -368834998#4 -368834998#3 -368834998#2 -368834998#1"/>
    </vehicle>
    <vehicle id="47" type="passenger" depart="80.93">
        <route edges="-377373710#1 -377373710#0 377373577#2 368834998#2 368834998#3 368834998#4 1110186416#0 1110186416#1 -377373943#1 464419346 -377373584#1 -464399098#3"/>
    </vehicle>
    <vehicle id="48" type="passenger" depart="82.65">
        <route edges="-377373579#3 -377373579#2 -377373579#1 -377373579#0 1456415046#1 1113247891#2 1113247891#3 1113247891#4 1113247891#5 1113247891#6 1110186416#0 377373578 464399098#0 464399098#2 464399098#3"/>
    </vehicle>
    <vehicle id="49" type="passenger" depart="84.37">
        <route edges="-377373722#1 377373713#0 -377373715#2"/>
    </vehicle>
    <vehicle id="50" type="passenger" depart="86.09">
        <route edges="1113247891#4 1113247891#5 -224260206#6 -224260206#5 -224260206#4 -224260206#3 -224260206#2 -328442817 464240154#1"/>
    </vehicle>
    <vehicle id="51" type="passenger" depart="87.82">
        <route edges="-368834998#3 -377373699 -377373642 -377373715#1 1113247891#3 1113247891#4 1113247891#5 -224260206#6 -224260206#5 -224260206#4 -224260206#3 -224260206#2 -328442817 464240154#1"/>
    </vehicle>
    <vehicle id="52" type="passenger" depart="89.54">
        <route edges="377373642 377373699 368834998#3 368834998#4 515561247 1110155154#0 1110155154#1 -464240154#3 -464240154#2"/>
    </vehicle>
    <vehicle id="53" type="passenger" depart="91.26">
        <route edges="515561247 1110155154#0 1110155154#1 -464240154#3 -464240154#2 328442821 224260206#3 224260206#4 224260206#5 224260206#6 1113247891#6 1110186416#0 377373578 464399098#0 -464399099 377373583#2"/>
    </vehicle>
    <vehicle id="54" type="passenger" depart="92.98">
        <route edges="377373579#2 -377373638#1 -377373638#0 377373722#3 377373722#4 1113247891#2 1113247891#3 1110186418 1110155154#2"/>
    </vehicle>
    <vehicle id="55" type="passenger" depart="94.70">
        <route edges="-377373722#0 368834998#1 368834998#2 -377373699 -377373642 -377373715#1 1113247891#3 1113247891#4 1113247891#5"/>
    </vehicle>
    <vehicle id="56" type="passenger" depart="96.43">
        <route edges="-377373612#0 -377373638#0 -377373722#1 -377373722#0 368834998#1 -377373577#2"/>
    </vehicle>
    <vehicle id="57" type="passenger" depart="98.15">
        <route edges="-377373584#1 -464399098#3 -464399098#2 -464399099 -377373710#1 -377373710#0 377373577#2 368834998#2 368834998#3 368834998#4 515561247 -224260206#6 -224260206#5 -224260206#4 -224260206#3 -224260206#2"/>
    </vehicle>
    <vehicle id="58" type="passenger" depart="99.87">
        <route edges="-377373579#0 1456415046#1 1113247891#2 1113247891#3 1110186418 -464240154#3"/>
    </vehicle>
    <vehicle id="59" type="passenger" depart="101.59">
        <route edges="1113247891#5 1113247891#6 1110186416#0 377373578 -377373583#2 -377373710#1 -377373710#0 377373577#2 368834998#2"/>
    </vehicle>
    <vehicle id="60" type="passenger" depart="103.31">
        <route edges="-377373722#0 368834998#1 -377373577#2"/>
    </vehicle>
    <vehicle id="61" type="passenger" depart="105.03">
        <route edges="377373579#0"/>
    </vehicle>
    <vehicle id="62" type="passenger" depart="106.76">
        <route edges="-377373722#3 -377373722#1 377373713#0 -377373715#2 -377373715#1 1113247891#3 1110186418 -464240154#3 -464240154#2 328442821 224260206#3 224260206#4 224260206#5"/>
    </vehicle>
    <vehicle id="63" type="passenger" depart="108.48">
        <route edges="-377373722#1 -377373722#0 368834998#1 368834998#2 368834998#3 368834998#4"/>
    </vehicle>
    <vehicle id="64" type="passenger" depart="110.20">
        <route edges="377373699 368834998#3 368834998#4 515561247 -224260206#6 -224260206#5 -224260206#4 -224260206#3 -224260206#2"/>
    </vehicle>
    <vehicle id="65" type="passenger" depart="111.92">
        <route edges="377373638#1 377373579#3 377373556#1 -377373722#1 -377373722#0 368834998#1 -377373577#2 -377373577#1 -377373577#0"/>
    </vehicle>
    <vehicle id="66" type="passenger" depart="113.64">
        <route edges="-224260206#3 -328442821 -464240154#1 328442817 224260206#2 224260206#3 224260206#4 224260206#5 224260206#6 1113247891#6 -368834998#4 -368834998#3 -368834998#2 -368834998#1"/>
    </vehicle>
    <vehicle id="67" type="passenger" depart="115.37">
        <route edges="224260206#4 224260206#5 224260206#6 1113247891#6 -368834998#4 -368834998#3 -377373699 377373713#3"/>
    </vehicle>
    <vehicle id="68" type="passenger" depart="117.09">
        <route edges="377373722#4 1113247891#2 377373715#1 377373642 377373699"/>
    </vehicle>
    <vehicle id="69" type="passenger" depart="118.81">
        <route edges="-377373675"/>
    </vehicle>
    <vehicle id="70" type="passenger" depart="120.53">
        <route edges="-377373579#4 377373556#1 -377373722#1 377373713#0 377373713#1 -377373642"/>
    </vehicle>
    <vehicle id="71" type="passenger" depart="122.25">
        <route edges="377373577#1 377373710#0 377373710#1 -377373583#1 -377373582#1"/>
    </vehicle>
    <vehicle id="72" type="passenger" depart="123.98">
        <route edges="-377373583#3 -377373583#2 -377373710#1 -377373710#0 377373577#2 368834998#2 368834998#3 368834998#4 515561247 1110155154#0 1110155154#1 1110155154#2"/>
    </vehicle>
    <vehicle id="73" type="passenger" depart="125.70">
        <route edges="377373943#0 464419346 -377373584#1 -464399098#3 -464399098#2 -464399099 -377373710#1 -377373710#0 377373577#2 368834998#2 368834998#3 368834998#4 515561247 1110155154#0 1110155154#1 1110155154#2 1110155154#3 1110155154#4-AddedOnRampEdge"/>
    </vehicle>
    <vehicle id="74" type="passenger" depart="127.42">
        <route edges="377373722#3 377373722#4 1113247891#2 1113247891#3 1113247891#4 1113247891#5 1113247891#6 1110186416#0 1110186416#1 1110186416#2 1110186416#3"/>
    </vehicle>
    <vehicle id="75" type="passenger" depart="129.14">
        <route edges="-464399098#3 -464399098#2 -464399099 -377373710#1 -377373710#0 377373577#2 368834998#2 368834998#3 368834998#4 515561247 1110155154#0 1110155154#1 1110155154#2 1110155154#3"/>
    </vehicle>
    <vehicle id="76" type="passenger" depart="130.86">
        <route edges="377373642 377373699 -368834998#2 -377373577#2 -377373577#1 377373582#0 -377373695"/>
    </vehicle>
    <vehicle id="77" type="passenger" depart="132.58">
        <route edges="-377373584#2 -377373584#1 -464399098#3 -464399098#2 -464399099 -377373710#1 377373695 -377373582#0 377373577#1 377373710#0 377373710#1"/>
    </vehicle>
    <vehicle id="78" type="passenger" depart="134.31">
        <route edges="1113247891#2 377373715#1 377373715#2 -377373713#0 -377373722#0 368834998#1 368834998#2"/>
    </vehicle>
    <vehicle id="79" type="passenger" depart="136.03">
        <route edges="-377373583#2 -377373710#1 -377373710#0 377373577#2 368834998#2 368834998#3 368834998#4 515561247 -224260206#6"/>
    </vehicle>
    <vehicle id="80" type="passenger" depart="137.75">
        <route edges="-377373638#0 377373722#3 377373722#4 1113247891#2 1113247891#3 1110186418 1110155154#2 1489021496 -515561249#0"/>
    </vehicle>
    <vehicle id="81" type="passenger" depart="139.47">
        <route edges="-224260206#6 -224260206#5 -224260206#4 -224260206#3 -328442821 -464240154#1 328442817 224260206#2 224260206#3 224260206#4 224260206#5 224260206#6 1113247891#6 -368834998#4 -368834998#3 -368834998#2 -368834998#1 377373722#0 377373722#1 377373638#0 377373612#0 -377373675"/>
    </vehicle>
    <vehicle id="82" type="passenger" depart="141.19">
        <route edges="-377373715#2 -377373715#1 1113247891#3 1113247891#4 1113247891#5 1113247891#6 1110186416#0 377373578 -377373583#2 -377373583#1 -377373582#1"/>
    </vehicle>
    <vehicle id="83" type="passenger" depart="142.92">
        <route edges="377373556#0 377373556#1 -377373722#1 -377373722#0 368834998#1 -377373577#2 377373710#0 377373695 -377373582#0 377373577#1"/>
    </vehicle>
    <vehicle id="84" type="passenger" depart="144.64">
        <route edges="-377373722#3 377373638#0 377373638#1 377373579#3"/>
    </vehicle>
    <vehicle id="85" type="passenger" depart="146.36">
        <route edges="377373722#1 377373638#0 377373612#0 377373612#1 -377373722#3 -377373722#1"/>
    </vehicle>
    <vehicle id="86" type="passenger" depart="148.08">
        <route edges="1113247891#5 -224260206#6 -224260206#5 -224260206#4 -224260206#3 -224260206#2 -224260206#1 -224260206#0"/>
    </vehicle>
    <vehicle id="87" type="passenger" depart="149.80">
        <route edges="328442821 224260206#3 224260206#4 224260206#5 224260206#6 1113247891#6 1110186416#0 377373578 -377373583#2 -377373710#1 -377373710#0"/>
    </vehicle>
    <vehicle id="88" type="passenger" depart="151.53">
        <route edges="377373577#0 377373577#1 377373710#0 377373710#1 464399099 464399098#2 464399098#3 377373584#1 377373584#2"/>
    </vehicle>
    <vehicle id="89" type="passenger" depart="153.25">
        <route edges="-464240154#1 328442817 224260206#2 224260206#3 224260206#4 224260206#5 224260206#6 1113247891#6 1110186416#0 377373578 -377373583#2 -377373710#1 377373695 -377373582#0 377373577#1"/>
    </vehicle>
    <vehicle id="90" type="passenger" depart="154.97">
        <route edges="377373642 377373699 368834998#3 368834998#4 1110186416#0"/>
    </vehicle>
    <vehicle id="91" type="passenger" depart="156.69">
        <route edges="-464399099 -377373710#1 -377373710#0 377373577#2 -368834998#1 377373722#0 377373722#1 -377373556#1 -377373579#3"/>
    </vehicle>
    <vehicle id="92" type="passenger" depart="158.41">
        <route edges="-377373699 -377373713#1 -377373713#0 377373722#1 377373722#3"/>
    </vehicle>
    <vehicle id="93" type="passenger" depart="160.13">
        <route edges="515561247 -224260206#6 -224260206#5 -224260206#4 -224260206#3 -224260206#2 -328442817"/>
    </vehicle>
    <vehicle id="94" type="passenger" depart="161.86">
        <route edges="-224260206#3 -328442821 -464240154#1 328442817 224260206#2 224260206#3 224260206#4 224260206#5 224260206#6 1113247891#6 1110186416#0 1110186416#1 -377373943#1 464419346 377373584#2 377373584#3"/>
    </vehicle>
    <vehicle id="95" type="passenger" depart="163.58">
        <route edges="224260206#3 224260206#4 224260206#5 224260206#6 1113247891#6 -368834998#4 -368834998#3 -368834998#2 -377373577#2 377373710#0"/>
    </vehicle>
    <vehicle id="96" type="passenger" depart="165.30">
        <route edges="1113247891#4 1113247891#5 1113247891#6 1110186416#0 377373578 464399098#0 464399098#2 464399098#3"/>
    </vehicle>
    <vehicle id="97" type="passenger" depart="167.02">
        <route edges="377373722#4 1113247891#2 1113247891#3 1113247891#4 1113247891#5"/>
    </vehicle>
    <vehicle id="98" type="passenger" depart="168.74">
        <route edges="-224260206#5 -224260206#4 -224260206#3 -224260206#2 -224260206#1"/>
    </vehicle>
    <vehicle id="99" type="passenger" depart="170.47">
        <route edges="-224260206#3 -328442821 -464240154#1 328442817 224260206#2 224260206#3 224260206#4 224260206#5 224260206#6 1113247891#6 -368834998#4 -368834998#3 -368834998#2 -377373577#2 -377373577#1 377373582#0 377373582#1"/>
    </vehicle>
    <vehicle id="100" type="passenger" depart="172.19">
        <route edges="377373556#0 377373556#1 -377373722#1 -377373722#0 368834998#1 -377373577#2 -377373577#1 -377373577#0"/>
    </vehicle>
    <vehicle id="101" type="passenger" depart="173.91">
        <route edges="377373638#1 -377373579#2 -377373579#1 -377373579#0 1456415046#1 1113247891#2 1113247891#3 1113247891#4 1113247891#5 1113247891#6 1110186416#0 1110186416#1 -377373943#1 464419346 377373584#2 377373584#3 377373584#4"/>
    </vehicle>
    <vehicle id="102" type="passenger" depart="175.63">
        <route edges="368834998#4 515561247 1110155154#0 1110155154#1 -464240154#3 -464240154#2 -464240154#1 328442817 224260206#2"/>
    </vehicle>
    <vehicle id="103" type="passenger" depart="177.35">
        <route edges="328442821 224260206#3 224260206#4 224260206#5 224260206#6 1113247891#6 1110186416#0 377373578 -377373583#2 -377373710#1 -377373710#0 377373577#2"/>
    </vehicle>
    <vehicle id="104" type="passenger" depart="179.08">
        <route edges="-377373584#4 -377373584#3 -377373584#2 -377373584#1 -464399098#3 -464399098#2 -464399099 -377373710#1 -377373710#0 377373577#2 -368834998#1 377373722#0 377373722#1 377373722#3 -377373612#1 -377373612#0 -377373638#0"/>
    </vehicle>
    <vehicle id="105" type="passenger" depart="180.80">
        <route edges="377373695 -377373582#0 377373577#1 377373577#2 368834998#2 -377373699 -377373642 -377373715#1 1113247891#3 1113247891#4 1113247891#5"/>
    </vehicle>
    <vehicle id="106" type="passenger" depart="182.52">
        <route edges="-368834998#4 -368834998#3 -377373699 -377373642 -377373715#1 1113247891#3 1110186418"/>
    </vehicle>
    <vehicle id="107" type="passenger" depart="184.24">
        <route edges="377373579#3 377373556#1 377373722#3 377373722#4 1113247891#2 1113247891#3 1113247891#4 1113247891#5 -224260206#6 -224260206#5 -224260206#4"/>
    </vehicle>
    <vehicle id="108" type="passenger" depart="185.96">
        <route edges="-377373584#3 -377373584#2 -377373584#1 -464399098#3 -464399098#2 -464399099 -377373710#1 -377373710#0 377373577#2 368834998#2 368834998#3 368834998#4 515561247 -224260206#6 -224260206#5 -224260206#4 -224260206#3 -224260206#2"/>
    </vehicle>
    <vehicle id="109" type="passenger" depart="187.68">
        <route edges="377373579#3 377373556#1 -377373722#1 -377373722#0 368834998#1 -377373577#2 377373710#0 377373710#1 464399099 -464399098#0"/>
    </vehicle>
    <vehicle id="110" type="passenger" depart="189.41">
        <route edges="-224260206#3 -328442821 -464240154#1 328442817 224260206#2 224260206#3 224260206#4 224260206#5 224260206#6 1113247891#6 -368834998#4 -368834998#3 -368834998#2 -368834998#1 377373722#0 377373722#1 377373722#3 -377373612#1"/>
    </vehicle>
    <vehicle id="111" type="passenger" depart="191.13">
        <route edges="-377373722#4 -377373722#3 -377373722#1 377373713#0 -377373715#2 -377373715#1 1113247891#3 1113247891#4 1113247891#5 -224260206#6 -224260206#5"/>
    </vehicle>
    <vehicle id="112" type="passenger" depart="192.85">
        <route edges="-377373722#3 -377373722#1 -377373722#0 368834998#1"/>
    </vehicle>
    <vehicle id="113" type="passenger" depart="194.57">
        <route edges="224260206#0 224260206#1 224260206#2 224260206#3 224260206#4"/>
    </vehicle>
    <vehicle id="114" type="passenger" depart="196.29">
        <route edges="-377373582#1 -377373582#0 377373577#1 377373577#2 368834998#2 368834998#3 368834998#4 515561247 -224260206#6"/>
    </vehicle>
    <vehicle id="115" type="passenger" depart="198.02">
        <route edges="377373577#1 377373577#2 368834998#2 368834998#3 368834998#4 515561247"/>
    </vehicle>
    <vehicle id="116" type="passenger" depart="199.74">
        <route edges="-377373715#2 377373642 377373699 -368834998#2 -377373577#2 -377373577#1 377373582#0 377373582#1 377373583#1"/>
    </vehicle>
    <vehicle id="117" type="passenger" depart="201.46">
        <route edges="-377373713#3 -377373642 -377373715#1 1113247891#3 1110186418 -464240154#3 -464240154#2 328442821 224260206#3 224260206#4 224260206#5 224260206#6"/>
    </vehicle>
    <vehicle id="118" type="passenger" depart="203.18">
        <route edges="464240154#0 464240154#1 464240154#2 464240154#3 1110155154#2 1110155154#3"/>
    </vehicle>
    <vehicle id="119" type="passenger" depart="204.90">
        <route edges="1113247891#3 1113247891#4 1113247891#5 1113247891#6 -368834998#4 -368834998#3 -368834998#2 -368834998#1 377373722#0 377373722#1 377373722#3 -377373612#1 -377373612#0"/>
    </vehicle>
    <vehicle id="120" type="passenger" depart="206.63">
        <route edges="464419346 -377373584#1 -464399098#3 -464399098#2 -464399099 -377373710#1 -377373710#0 377373577#2"/>
    </vehicle>
    <vehicle id="121" type="passenger" depart="208.35">
        <route edges="-377373722#3 377373638#0 377373612#0 -377373675"/>
    </vehicle>
    <vehicle id="122" type="passenger" depart="210.07">
        <route edges="-224260206#4 -224260206#3 -328442821 -464240154#1 328442817 224260206#2 224260206#3 224260206#4 224260206#5 224260206#6 1113247891#6 -368834998#4 -368834998#3"/>
    </vehicle>
    <vehicle id="123" type="passenger" depart="211.79">
        <route edges="377373612#1 -377373722#3 377373638#0 377373638#1 -377373579#2 377373675 -377373612#0"/>
    </vehicle>
    <vehicle id="124" type="passenger" depart="213.51">
        <route edges="377373713#0 377373713#1 -377373642 377373715#2 -377373713#0 377373722#1 377373638#0 377373638#1 377373579#3"/>
    </vehicle>
    <vehicle id="125" type="passenger" depart="215.23">
        <route edges="377373722#1 377373722#3 377373722#4 1113247891#2 1113247891#3 1113247891#4 1113247891#5 1113247891#6 1110186416#0 1110186416#1"/>
    </vehicle>
    <vehicle id="126" type="passenger" depart="216.96">
        <route edges="-377373579#4 -377373579#3 -377373579#2 -377373579#1 -377373579#0 1456415046#1 1113247891#2 1113247891#3 1113247891#4 1113247891#5 -224260206#6 -224260206#5 -224260206#4 -224260206#3 -224260206#2 -328442817 464240154#1"/>
    </vehicle>
    <vehicle id="127" type="passenger" depart="218.68">
        <route edges="-377373715#2 -377373715#1 1113247891#3 1113247891#4 1113247891#5 -224260206#6 -224260206#5 -224260206#4 -224260206#3 -328442821 464240154#2 464240154#3"/>
    </vehicle>
    <vehicle id="128" type="passenger" depart="220.40">
        <route edges="224260206#2 224260206#3 224260206#4 224260206#5 224260206#6 1113247891#6 1110186416#0 377373578 -377373583#2 464399099 -464399098#0"/>
    </vehicle>
    <vehicle id="129" type="passenger" depart="222.12">
        <route edges="1456415046#1 1113247891#2 1113247891#3 1110186418 -464240154#3 -464240154#2 -464240154#1 -464240154#0"/>
    </vehicle>
    <vehicle id="130" type="passenger" depart="223.84">