<?xml version="1.0" encoding="UTF-8"?>

<!-- generated on 2026-04-17 02:51:31.679495 by Eclipse SUMO randomTrips.py v1.26.0
<configuration>
    <net-file value="/Users/junlee/Desktop/2026-1/js/result/tradeoff_pet_top12_seed12_60min_20260417_024953/sumo_nets/cw_6511/network.net.xml"/>
    <output-trip-file value="/Users/junlee/Desktop/2026-1/js/result/tradeoff_pet_top12_seed12_60min_20260417_024953/sumo_nets/cw_6511/routes_seed42.trips.xml"/>
    <route-file value="/Users/junlee/Desktop/2026-1/js/result/tradeoff_pet_top12_seed12_60min_20260417_024953/sumo_nets/cw_6511/routes_seed42.rou.xml"/>
    <vehicle-class value="passenger"/>
    <period value="2.949543174332364"/>
</configuration>
-->

<routes xmlns:xsi="http://www.w3.org/2001/XMLSchema-instance" xsi:noNamespaceSchemaLocation="http://sumo.dlr.de/xsd/routes_file.xsd">
    <vType id="passenger" vClass="passenger"/>
    <trip id="0" depart="0.00" from="273028084#4" to="-198691062#1" type="passenger"/>
    <trip id="1" depart="2.95" from="-775222468#3" to="-464461053#2" type="passenger"/>
    <trip id="2" depart="5.90" from="777422408" to="-270279684#0" type="passenger"/>
    <trip id="3" depart="8.85" from="-464461057#2" to="198691090" type="passenger"/>
    <trip id="4" depart="11.80" from="273028084#5" to="198691092#3" type="passenger"/>
    <trip id="5" depart="14.75" from="-464461057#2" to="273024752" type="passenger"/>
    <trip id="6" depart="17.70" from="464461063" to="-198691055" type="passenger"/>
    <trip id="7" depart="20.65" from="464461063" to="347237859#3" type="passenger"/>
    <trip id="8" depart="23.60" from="-913570918" to="-273028084#5" type="passenger"/>
    <trip id="9" depart="26.55" from="781985790#0" to="-781985790#0" type="passenger"/>
    <trip id="10" depart="29.50" from="-270279686#1" to="-270279684#1" type="passenger"/>
    <trip id="11" depart="32.44" from="775222468#0" to="273028084#1" type="passenger"/>
    <trip id="12" depart="35.39" from="464461063" to="464461053#1" type="passenger"/>
    <trip id="13" depart="38.34" from="620607766#2" to="273028084#4" type="passenger"/>
    <trip id="14" depart="41.29" from="775222468#1" to="270279686#1" type="passenger"/>
    <trip id="15" depart="44.24" from="-464461057#3" to="-775222468#0" type="passenger"/>
    <trip id="16" depart="47.19" from="-270279686#0" to="-464461057#0" type="passenger"/>
    <trip id="17" depart="50.14" from="-273028084#0" to="-464461063" type="passenger"/>
    <trip id="18" depart="53.09" from="273028084#2" to="-913570918" type="passenger"/>
    <trip id="19" depart="56.04" from="273028084#5" to="273028084#2" type="passenger"/>
    <trip id="20" depart="58.99" from="913570918" to="273028084#6" type="passenger"/>
    <trip id="21" depart="61.94" from="218915133#0" to="347237859#2" type="passenger"/>
    <trip id="22" depart="64.89" from="620607766#3" to="464461060" type="passenger"/>
    <trip id="23" depart="67.84" from="-781985790#1" to="-464461060" type="passenger"/>
    <trip id="24" depart="70.79" from="-464461057#1" to="781985790#0" type="passenger"/>
    <trip id="25" depart="73.74" from="775222468#3" to="-775222468#3" type="passenger"/>
    <trip id="26" depart="76.69" from="273028084#6" to="198691061#1" type="passenger"/>
    <trip id="27" depart="79.64" from="781985786#2" to="198691071#0" type="passenger"/>
    <trip id="28" depart="82.59" from="270279684#1" to="781985786#2" type="passenger"/>
    <trip id="29" depart="85.54" from="913570919" to="198691090" type="passenger"/>
    <trip id="30" depart="88.49" from="-273028084#1" to="273028084#5" type="passenger"/>
    <trip id="31" depart="91.44" from="464461057#3" to="198691062#1" type="passenger"/>
    <trip id="32" depart="94.39" from="913570919" to="198691092#1" type="passenger"/>
    <trip id="33" depart="97.33" from="781985790#1" to="775222468#4" type="passenger"/>
    <trip id="34" depart="100.28" from="347237859#0" to="198691092#2" type="passenger"/>
    <trip id="35" depart="103.23" from="781985786#1" to="775222468#5" type="passenger"/>
    <trip id="36" depart="106.18" from="273024752" to="-273028084#4" type="passenger"/>
    <trip id="37" depart="109.13" from="464461057#0" to="198691092#3" type="passenger"/>
    <trip id="38" depart="112.08" from="464461057#2" to="198691092#2" type="passenger"/>
    <trip id="39" depart="115.03" from="775222468#3" to="775222468#1" type="passenger"/>
    <trip id="40" depart="117.98" from="-781985790#0" to="-198691072#0" type="passenger"/>
    <trip id="41" depart="120.93" from="775222468#3" to="781985790#0" type="passenger"/>
    <trip id="42" depart="123.88" from="-270279684#1" to="464461057#2" type="passenger"/>
    <trip id="43" depart="126.83" from="464461057#0" to="-273028084#1" type="passenger"/>
    <trip id="44" depart="129.78" from="198691063#0" to="-464461053#0" type="passenger"/>
    <trip id="45" depart="132.73" from="-464461053#2" to="-775222468#3" type="passenger"/>
    <trip id="46" depart="135.68" from="913570919" to="277257944#1" type="passenger"/>
    <trip id="47" depart="138.63" from="-273028084#4" to="-464461053#2" type="passenger"/>
    <trip id="48" depart="141.58" from="-913570918" to="273024752" type="passenger"/>
    <trip id="49" depart="144.53" from="-464461057#3" to="-464461053#1" type="passenger"/>
    <trip id="50" depart="147.48" from="-270279684#1" to="273028084#5" type="passenger"/>
    <trip id="51" depart="150.43" from="-464461057#3" to="781985786#2" type="passenger"/>
    <trip id="52" depart="153.38" from="775222468#1" to="-198691090" type="passenger"/>
    <trip id="53" depart="156.33" from="-464461057#1" to="-273028084#1" type="passenger"/>
    <trip id="54" depart="159.28" from="781985786#4" to="270279686#0" type="passenger"/>
    <trip id="55" depart="162.22" from="198691082#0" to="464461063" type="passenger"/>
    <trip id="56" depart="165.17" from="464461063" to="-381226321" type="passenger"/>
    <trip id="57" depart="168.12" from="198691063#0" to="198691071#1" type="passenger"/>
    <trip id="58" depart="171.07" from="913570918" to="-270279684#1" type="passenger"/>
    <trip id="59" depart="174.02" from="-464461053#1" to="198691068" type="passenger"/>
    <trip id="60" depart="176.97" from="-464461063" to="781985786#5" type="passenger"/>
    <trip id="61" depart="179.92" from="913570919" to="775222468#1" type="passenger"/>
    <trip id="62" depart="182.87" from="781985790#1" to="781985786#5" type="passenger"/>
    <trip id="63" depart="185.82" from="775222468#0" to="-273028084#6" type="passenger"/>
    <trip id="64" depart="188.77" from="198691061#2" to="-198691072#0" type="passenger"/>
    <trip id="65" depart="191.72" from="198691057#1" to="913570918" type="passenger"/>
    <trip id="66" depart="194.67" from="198691072#0" to="198691062#1" type="passenger"/>
    <trip id="67" depart="197.62" from="781985790#0" to="913570919" type="passenger"/>
    <trip id="68" depart="200.57" from="218915133#0" to="464461053#0" type="passenger"/>
    <trip id="69" depart="203.52" from="-273028084#7" to="-775222468#1" type="passenger"/>
    <trip id="70" depart="206.47" from="781985790#1" to="270279686#1" type="passenger"/>
    <trip id="71" depart="209.42" from="-277257944#1" to="781985790#3" type="passenger"/>
    <trip id="72" depart="212.37" from="-270279686#0" to="-277257944#1" type="passenger"/>
    <trip id="73" depart="215.32" from="-464461060" to="-273028084#0" type="passenger"/>
    <trip id="74" depart="218.27" from="270279686#0" to="273028084#4" type="passenger"/>
    <trip id="75" depart="221.22" from="-464461060" to="198691061#1" type="passenger"/>
    <trip id="76" depart="224.17" from="273028084#7" to="-775222468#2" type="passenger"/>
    <trip id="77" depart="227.11" from="-781985790#1" to="464461057#1" type="passenger"/>
    <trip id="78" depart="230.06" from="-270279684#1" to="198691071#0" type="passenger"/>
    <trip id="79" depart="233.01" from="913570919" to="913570919" type="passenger"/>
    <trip id="80" depart="235.96" from="-270279684#1" to="-464461053#0" type="passenger"/>
    <trip id="81" depart="238.91" from="620607766#2" to="347237859#4" type="passenger"/>
    <trip id="82" depart="241.86" from="273024752" to="913570918" type="passenger"/>
    <trip id="83" depart="244.81" from="273028084#5" to="-198691055" type="passenger"/>
    <trip id="84" depart="247.76" from="620607766#0" to="-775222468#2" type="passenger"/>
    <trip id="85" depart="250.71" from="273028084#6" to="781985786#6" type="passenger"/>
    <trip id="86" depart="253.66" from="-273028084#5" to="-270279686#1" type="passenger"/>
    <trip id="87" depart="256.61" from="-775222468#3" to="273028084#1" type="passenger"/>
    <trip id="88" depart="259.56" from="381226321" to="-381226323" type="passenger"/>
    <trip id="89" depart="262.51" from="775222468#0" to="-270279684#0" type="passenger"/>
    <trip id="90" depart="265.46" from="198691063#0" to="-464461063" type="passenger"/>
    <trip id="91" depart="268.41" from="198691063#0" to="-198691062#0" type="passenger"/>
    <trip id="92" depart="271.36" from="-270279684#1" to="781985784" type="passenger"/>
    <trip id="93" depart="274.31" from="781985786#0" to="198691092#3" type="passenger"/>
    <trip id="94" depart="277.26" from="620607766#2" to="273024752" type="passenger"/>
    <trip id="95" depart="280.21" from="-273028084#7" to="-273028084#0" type="passenger"/>
    <trip id="96" depart="283.16" from="-781985790#0" to="781985786#2" type="passenger"/>
    <trip id="97" depart="286.11" from="464461060" to="775222468#4" type="passenger"/>
    <trip id="98" depart="289.06" from="781985786#0" to="-464461053#0" type="passenger"/>
    <trip id="99" depart="292.00" from="-464461063" to="-270279686#0" type="passenger"/>
    <trip id="100" depart="294.95" from="464461057#2" to="781985784" type="passenger"/>
    <trip id="101" depart="297.90" from="-273028084#7" to="781985786#5" type="passenger"/>
    <trip id="102" depart="300.85" from="775222468#2" to="783692390" type="passenger"/>
    <trip id="103" depart="303.80" from="620607766#0" to="781985784" type="passenger"/>
    <trip id="104" depart="306.75" from="-781985790#4" to="781985786#5" type="passenger"/>
    <trip id="105" depart="309.70" from="464461063" to="775222468#5" type="passenger"/>
    <trip id="106" depart="312.65" from="620607766#0" to="-464461060" type="passenger"/>
    <trip id="107" depart="315.60" from="464461057#3" to="-270279686#0" type="passenger"/>
    <trip id="108" depart="318.55" from="775222468#3" to="775222468#4" type="passenger"/>
    <trip id="109" depart="321.50" from="-464461057#2" to="620607766#3" type="passenger"/>
    <trip id="110" depart="324.45" from="464461060" to="-464461053#2" type="passenger"/>
    <trip id="111" depart="327.40" from="-781985790#4" to="775222468#5" type="passenger"/>
    <trip id="112" depart="330.35" from="781985790#1" to="-464461063" type="passenger"/>
    <trip id="113" depart="333.30" from="273028084#4" to="198691061#1" type="passenger"/>
    <trip id="114" depart="336.25" from="781985786#4" to="-270279686#1" type="passenger"/>
    <trip id="115" depart="339.20" from="781985790#1" to="-273028084#7" type="passenger"/>
    <trip id="116" depart="342.15" from="781985790#0" to="-464461060" type="passenger"/>
    <trip id="117" depart="345.10" from="381226323" to="-775222468#3" type="passenger"/>
    <trip id="118" depart="348.05" from="273024752" to="198691090" type="passenger"/>
    <trip id="119" depart="351.00" from="198691055" to="-198691090" type="passenger"/>
    <trip id="120" depart="353.95" from="273028084#7" to="-777422408" type="passenger"/>
    <trip id="121" depart="356.89" from="-781985790#1" to="775222468#3" type="passenger"/>
    <trip id="122" depart="359.84" from="381226321" to="-775222468#2" type="passenger"/>
    <trip id="123" depart="362.79" from="-781985790#0" to="198691061#2" type="passenger"/>
    <trip id="124" depart="365.74" from="-273028084#4" to="198691062#1" type="passenger"/>
    <trip id="125" depart="368.69" from="781985786#0" to="273028084#4" type="passenger"/>
    <trip id="126" depart="371.64" from="198691063#0" to="270279686#1" type="passenger"/>
    <trip id="127" depart="374.59" from="273028084#5" to="198691071#1" type="passenger"/>
    <trip id="128" depart="377.54" from="198691082#0" to="781985786#2" type="passenger"/>
    <trip id="129" depart="380.49" from="464461060" to="-273028084#6" type="passenger"/>
    <trip id="130" depart="383.44" from="-270279686#0" to="198691091" type="passenger"/>
    <trip id="131" depart="386.39" from="273028084#2" to="-781985790#0" type="passenger"/>
    <trip id="132" depart="389.34" from="620607766#0" to="464461057#1" type="passenger"/>
    <trip id="133" depart="392.29" from="277257944#1" to="-464461053#2" type="passenger"/>
    <trip id="134" depart="395.24" from="-464461053#2" to="-198691062#1" type="passenger"/>
    <trip id="135" depart="398.19" from="-464461063" to="198691072#1" type="passenger"/>
    <trip id="136" depart="401.14" from="775222468#0" to="-198691090" type="passenger"/>
    <trip id="137" depart="404.09" from="-464461053#1" to="347237859#3" type="passenger"/>
    <trip id="138" depart="407.04" from="273028084#6" to="-198691055" type="passenger"/>
    <trip id="139" depart="409.99" from="464461053#2" to="464461060" type="passenger"/>
    <trip id="140" depart="412.94" from="-273028084#1" to="198691062#1" type="passenger"/>
    <trip id="141" depart="415.89" from="-381226323" to="781985790#3" type="passenger"/>
    <trip id="142" depart="418.84" from="-464461063" to="775222468#3" type="passenger"/>
    <trip id="143" depart="421.78" from="273028084#7" to="913570918" type="passenger"/>
    <trip id="144" depart="424.73" from="270279686#1" to="781985790#1" type="passenger"/>
    <trip id="145" depart="427.68" from="777422408" to="273028084#2" type="passenger"/>
    <trip id="146" depart="430.63" from="381226321" to="198691090" type="passenger"/>
    <trip id="147" depart="433.58" from="781985786#0" to="464461057#1" type="passenger"/>
    <trip id="148" depart="436.53" from="-464461063" to="273028084#6" type="passenger"/>
    <trip id="149" depart="439.48" from="464461057#0" to="198691091" type="passenger"/>
    <trip id="150" depart="442.43" from="273028084#1" to="-464461063" type="passenger"/>
    <trip id="151" depart="445.38" from="-270279684#1" to="-775222468#0" type="passenger"/>
    <trip id="152" depart="448.33" from="-775222468#3" to="-775222468#4" type="passenger"/>
    <trip id="153" depart="451.28" from="-464461057#3" to="347237859#3" type="passenger"/>
    <trip id="154" depart="454.23" from="347237859#2" to="-198691072#1" type="passenger"/>
    <trip id="155" depart="457.18" from="198691062#0" to="198691092#3" type="passenger"/>
    <trip id="156" depart="460.13" from="270279684#1" to="347237859#3" type="passenger"/>
    <trip id="157" depart="463.08" from="775222468#1" to="464461057#3" type="passenger"/>
    <trip id="158" depart="466.03" from="198691061#0" to="-198691055" type="passenger"/>
    <trip id="159" depart="468.98" from="1109231376" to="464461057#2" type="passenger"/>
    <trip id="160" depart="471.93" from="775222468#0" to="781985790#1" type="passenger"/>
    <trip id="161" depart="474.88" from="-464461057#2" to="-464461053#1" type="passenger"/>
    <trip id="162" depart="477.83" from="198691082#0" to="-273028084#0" type="passenger"/>
    <trip id="163" depart="480.78" from="-273028084#5" to="198691071#1" type="passenger"/>
    <trip id="164" depart="483.73" from="-464461057#1" to="-777422408" type="passenger"/>
    <trip id="165" depart="486.67" from="464461053#2" to="775222468#1" type="passenger"/>
    <trip id="166" depart="489.62" from="-198691068" to="198691092#3" type="passenger"/>
    <trip id="167" depart="492.57" from="913570919" to="-781985790#1" type="passenger"/>
    <trip id="168" depart="495.52" from="273028084#5" to="464461063" type="passenger"/>
    <trip id="169" depart="498.47" from="273028084#5" to="464461057#2" type="passenger"/>
    <trip id="170" depart="501.42" from="781985786#6" to="-381226323" type="passenger"/>
    <trip id="171" depart="504.37" from="218915133#1" to="-464461053#1" type="passenger"/>
    <trip id="172" depart="507.32" from="464461053#1" to="-270279686#1" type="passenger"/>
    <trip id="173" depart="510.27" from="620607766#1" to="781985790#3" type="passenger"/>
    <trip id="174" depart="513.22" from="781985790#0" to="198691061#1" type="passenger"/>
    <trip id="175" depart="516.17" from="347237859#1" to="273028084#5" type="passenger"/>
    <trip id="176" depart="519.12" from="-273028084#0" to="464461060" type="passenger"/>
    <trip id="177" depart="522.07" from="775222468#0" to="273028084#1" type="passenger"/>
    <trip id="178" depart="525.02" from="-273028084#4" to="913570918" type="passenger"/>
    <trip id="179" depart="527.97" from="464461057#2" to="-781985790#1" type="passenger"/>
    <trip id="180" depart="530.92" from="198691063#0" to="1109231376" type="passenger"/>
    <trip id="181" depart="533.87" from="775222468#0" to="775222468#0" type="passenger"/>
    <trip id="182" depart="536.82" from="-273028084#1" to="781985790#3" type="passenger"/>
    <trip id="183" depart="539.77" from="273028084#2" to="775222468#0" type="passenger"/>
    <trip id="184" depart="542.72" from="464461053#0" to="781985790#3" type="passenger"/>
    <trip id="185" depart="545.67" from="-775222468#3" to="620607766#2" type="passenger"/>
    <trip id="186" depart="548.62" from="-775222468#3" to="775222468#3" type="passenger"/>
    <trip id="187" depart="551.56" from="620607766#2" to="-270279684#0" type="passenger"/>
    <trip id="188" depart="554.51" from="775222468#0" to="-277257944#1" type="passenger"/>
    <trip id="189" depart="557.46" from="-464461057#1" to="620607766#1" type="passenger"/>
    <trip id="190" depart="560.41" from="-270279686#0" to="464461053#0" type="passenger"/>
    <trip id="191" depart="563.36" from="347237859#1" to="273028084#7" type="passenger"/>
    <trip id="192" depart="566.31" from="-270279686#1" to="-464461053#1" type="passenger"/>
    <trip id="193" depart="569.26" from="347237859#1" to="-775222468#2" type="passenger"/>
    <trip id="194" depart="572.21" from="270279684#1" to="198691072#1" type="passenger"/>
    <trip id="195" depart="575.16" from="198691092#1" to="198691062#1" type="passenger"/>
    <trip id="196" depart="578.11" from="464461053#1" to="-777422408" type="passenger"/>
    <trip id="197" depart="581.06" from="-464461053#1" to="-270279686#1" type="passenger"/>
    <trip id="198" depart="584.01" from="-464461053#0" to="-464461053#1" type="passenger"/>
    <trip id="199" depart="586.96" from="-775222468#4" to="-270279684#1" type="passenger"/>
    <trip id="200" depart="589.91" from="-464461053#1" to="-464461053#2" type="passenger"/>
    <trip id="201" depart="592.86" from="-381226323" to="-198691062#0" type="passenger"/>
    <trip id="202" depart="595.81" from="347237859#1" to="-273028084#0" type="passenger"/>
    <trip id="203" depart="598.76" from="775222468#3" to="270279686#1" type="passenger"/>
    <trip id="204" depart="601.71" from="198691082#0" to="198691065" type="passenger"/>
    <trip id="205" depart="604.66" from="-464461053#0" to="-198691072#0" type="passenger"/>
    <trip id="206" depart="607.61" from="781985786#5" to="198691072#1" type="passenger"/>
    <trip id="207" depart="610.56" from="620607766#1" to="198691061#1" type="passenger"/>
    <trip id="208" depart="613.50" from="-270279684#1" to="273028084#5" type="passenger"/>
    <trip id="209" depart="616.45" from="218915133#1" to="-775222468#2" type="passenger"/>
    <trip id="210" depart="619.40" from="913570919" to="-270279686#1" type="passenger"/>
    <trip id="211" depart="622.35" from="464461057#0" to="273028084#1" type="passenger"/>
    <trip id="212" depart="625.30" from="464461057#3" to="-464461053#2" type="passenger"/>
    <trip id="213" depart="628.25" from="198691092#0" to="198691068" type="passenger"/>
    <trip id="214" depart="631.20" from="913570918" to="-775222468#2" type="passenger"/>
    <trip id="215" depart="634.15" from="273028084#1" to="273028084#2" type="passenger"/>
    <trip id="216" depart="637.10" from="464461053#0" to="781985790#0" type="passenger"/>
    <trip id="217" depart="640.05" from="-464461057#1" to="-464461053#0" type="passenger"/>
    <trip id="218" depart="643.00" from="273028084#6" to="-273028084#5" type="passenger"/>
    <trip id="219" depart="645.95" from="-381226323" to="-198691090" type="passenger"/>
    <trip id="220" depart="648.90" from="-198691062#1" to="198691068" type="passenger"/>
    <trip id="221" depart="651.85" from="270279686#0" to="-775222468#1" type="passenger"/>
    <trip id="222" depart="654.80" from="-464461057#3" to="347237859#4" type="passenger"/>
    <trip id="223" depart="657.75" from="347237859#2" to="198691071#0" type="passenger"/>
    <trip id="224" depart="660.70" from="347237859#0" to="781985786#5" type="passenger"/>
    <trip id="225" depart="663.65" from="464461057#3" to="273028084#5" type="passenger"/>
    <trip id="226" depart="666.60" from="273028084#6" to="781985786#6" type="passenger"/>
    <trip id="227" depart="669.55" from="198691063#0" to="198691092#3" type="passenger"/>
    <trip id="228" depart="672.50" from="273028084#5" to="781985786#3" type="passenger"/>
    <trip id="229" depart="675.45" from="620607766#1" to="-198691090" type="passenger"/>
    <trip id="230" depart="678.39" from="464461053#1" to="270279686#0" type="passenger"/>
    <trip id="231" depart="681.34" from="-775222468#5" to="-273028084#0" type="passenger"/>
    <trip id="232" depart="684.29" from="347237859#0" to="347237859#3" type="passenger"/>
    <trip id="233" depart="687.24" from="781985786#5" to="198691082#3" type="passenger"/>
    <trip id="234" depart="690.19" from="-270279686#1" to="781985790#3" type="passenger"/>
    <trip id="235" depart="693.14" from="620607766#2" to="270279686#1" type="passenger"/>
    <trip id="236" depart="696.09" from="781985786#6" to="913570919" type="passenger"/>
    <trip id="237" depart="699.04" from="273028084#7" to="-464461060" type="passenger"/>
    <trip id="238" depart="701.99" from="198691082#0" to="277257944#1" type="passenger"/>
    <trip id="239" depart="704.94" from="781985786#2" to="-277257944#1" type="passenger"/>
    <trip id="240" depart="707.89" from="270279684#1" to="273028084#6" type="passenger"/>
    <trip id="241" depart="710.84" from="1109231376" to="-777422408" type="passenger"/>
    <trip id="242" depart="713.79" from="273028084#7" to="775222468#4" type="passenger"/>
    <trip id="243" depart="716.74" from="-781985790#4" to="347237859#3" type="passenger"/>
    <trip id="244" depart="719.69" from="-775222468#5" to="781985790#0" type="passenger"/>
    <trip id="245" depart="722.64" from="-781985790#3" to="781985790#4" type="passenger"/>
    <trip id="246" depart="725.59" from="198691061#2" to="198691091" type="passenger"/>
    <trip id="247" depart="728.54" from="913570918" to="277257944#1" type="passenger"/>
    <trip id="248" depart="731.49" from="-464461053#0" to="-913570918" type="passenger"/>
    <trip id="249" depart="734.44" from="464461053#2" to="273028084#5" type="passenger"/>
    <trip id="250" depart="737.39" from="464461057#0" to="-381226323" type="passenger"/>
    <trip id="251" depart="740.34" from="-273028084#4" to="781985790#4" type="passenger"/>
    <trip id="252" depart="743.28" from="273024752" to="-464461057#0" type="passenger"/>
    <trip id="253" depart="746.23" from="218915133#0" to="-270279684#0" type="passenger"/>
    <trip id="254" depart="749.18" from="913570919" to="781985786#3" type="passenger"/>
    <trip id="255" depart="752.13" from="620607766#2" to="198691082#3" type="passenger"/>
    <trip id="256" depart="755.08" from="381226321" to="198691090" type="passenger"/>
    <trip id="257" depart="758.03" from="-775222468#3" to="775222468#1" type="passenger"/>
    <trip id="258" depart="760.98" from="781985786#2" to="198691090" type="passenger"/>
    <trip id="259" depart="763.93" from="775222468#4" to="775222468#5" type="passenger"/>
    <trip id="260" depart="766.88" from="-775222468#4" to="620607766#0" type="passenger"/>
    <trip id="261" depart="769.83" from="-775222468#4" to="-775222468#1" type="passenger"/>
    <trip id="262" depart="772.78" from="270279686#0" to="913570919" type="passenger"/>
    <trip id="263" depart="775.73" from="218915133#0" to="198691092#3" type="passenger"/>
    <trip id="264" depart="778.68" from="-464461053#0" to="347237859#3" type="passenger"/>
    <trip id="265" depart="781.63" from="270279684#0" to="-464461057#0" type="passenger"/>
    <trip id="266" depart="784.58" from="464461053#1" to="347237859#4" type="passenger"/>
    <trip id="267" depart="787.53" from="620607766#0" to="198691061#0" type="passenger"/>
    <trip id="268" depart="790.48" from="273028084#6" to="775222468#0" type="passenger"/>
    <trip id="269" depart="793.43" from="270279686#0" to="775222468#5" type="passenger"/>
    <trip id="270" depart="796.38" from="775222468#3" to="198691065" type="passenger"/>
    <trip id="271" depart="799.33" from="198691092#1" to="198691071#0" type="passenger"/>
    <trip id="272" depart="802.28" from="381226321" to="198691061#2" type="passenger"/>
    <trip id="273" depart="805.23" from="273028084#5" to="-273028084#5" type="passenger"/>
    <trip id="274" depart="808.17" from="198691082#0" to="781985790#4" type="passenger"/>
    <trip id="275" depart="811.12" from="-913570918" to="347237859#3" type="passenger"/>
    <trip id="276" depart="814.07" from="273028084#5" to="775222468#3" type="passenger"/>
    <trip id="277" depart="817.02" from="775222468#0" to="775222468#4" type="passenger"/>
    <trip id="278" depart="819.97" from="381226321" to="464461057#2" type="passenger"/>
    <trip id="279" depart="822.92" from="775222468#3" to="-198691068" type="passenger"/>
    <trip id="280" depart="825.87" from="781985786#2" to="913570919" type="passenger"/>
    <trip id="281" depart="828.82" from="-273028084#0" to="273028084#6" type="passenger"/>
    <trip id="282" depart="831.77" from="775222468#3" to="198691065" type="passenger"/>
    <trip id="283" depart="834.72" from="347237859#1" to="781985786#2" type="passenger"/>
    <trip id="284" depart="837.67" from="-273028084#6" to="198691092#2" type="passenger"/>
    <trip id="285" depart="840.62" from="218915133#1" to="620607766#0" type="passenger"/>
    <trip id="286" depart="843.57" from="-322977650" to="-198691091" type="passenger"/>
    <trip id="287" depart="846.52" from="775222468#3" to="273028084#4" type="passenger"/>
    <trip id="288" depart="849.47" from="-464461060" to="781985786#3" type="passenger"/>
    <trip id="289" depart="852.42" from="-273028084#6" to="198691071#0" type="passenger"/>
    <trip id="290" depart="855.37" from="-277257944#1" to="198691065" type="passenger"/>
    <trip id="291" depart="858.32" from="1109231376" to="273024752" type="passenger"/>
    <trip id="292" depart="861.27" from="273028084#4" to="198691062#1" type="passenger"/>
    <trip id="293" depart="864.22" from="-464461053#2" to="198691061#0" type="passenger"/>
    <trip id="294" depart="867.17" from="270279684#0" to="270279686#1" type="passenger"/>
    <trip id="295" depart="870.12" from="913570919" to="-775222468#1" type="passenger"/>
    <trip id="296" depart="873.06" from="-775222468#3" to="270279686#0" type="passenger"/>
    <trip id="297" depart="876.01" from="347237859#0" to="464461057#1" type="passenger"/>
    <trip id="298" depart="878.96" from="-775222468#5" to="620607766#1" type="passenger"/>
    <trip id="299" depart="881.91" from="273028084#2" to="273028084#4" type="passenger"/>
    <trip id="300" depart="884.86" from="277257944#1" to="464461053#0" type="passenger"/>
    <trip id="301" depart="887.81" from="273028084#6" to="775222468#2" type="passenger"/>
    <trip id="302" depart="890.76" from="273028084#1" to="781985786#2" type="passenger"/>
    <trip id="303" depart="893.71" from="273028084#4" to="-775222468#3" type="passenger"/>
    <trip id="304" depart="896.66" from="381226323" to="-270279684#0" type="passenger"/>
    <trip id="305" depart="899.61" from="-381226323" to="-273028084#1" type="passenger"/>
    <trip id="306" depart="902.56" from="464461063" to="464461057#1" type="passenger"/>
    <trip id="307" depart="905.51" from="-913570918" to="-270279686#1" type="passenger"/>
    <trip id="308" depart="908.46" from="781985790#0" to="-273028084#2" type="passenger"/>
    <trip id="309" depart="911.41" from="781985790#1" to="775222468#4" type="passenger"/>
    <trip id="310" depart="914.36" from="381226323" to="783692390" type="passenger"/>
    <trip id="311" depart="917.31" from="781985790#1" to="620607766#2" type="passenger"/>
    <trip id="312" depart="920.26" from="-198691063#0" to="198691092#2" type="passenger"/>
    <trip id="313" depart="923.21" from="273028084#7" to="273024752" type="passenger"/>
    <trip id="314" depart="926.16" from="620607766#1" to="781985790#0" type="passenger"/>
    <trip id="315" depart="929.11" from="-273028084#1" to="-464461057#0" type="passenger"/>
    <trip id="316" depart="932.06" from="218915133#1" to="781985786#4" type="passenger"/>
    <trip id="317" depart="935.01" from="-464461057#2" to="-198691072#1" type="passenger"/>
    <trip id="318" depart="937.95" from="620607766#1" to="781985786#3" type="passenger"/>
    <trip id="319" depart="940.90" from="-781985790#0" to="198691061#2" type="passenger"/>
    <trip id="320" depart="943.85" from="-273028084#6" to="781985790#0" type="passenger"/>
    <trip id="321" depart="946.80" from="-273028084#0" to="781985784" type="passenger"/>
    <trip id="322" depart="949.75" from="-273028084#5" to="198691071#0" type="passenger"/>
    <trip id="323" depart="952.70" from="273028084#7" to="464461053#2" type="passenger"/>
    <trip id="324" depart="955.65" from="781985786#5" to="198691062#1" type="passenger"/>