<?xml version="1.0" encoding="UTF-8"?>

<!-- generated on 2026-04-17 02:51:32.994976 by Eclipse SUMO randomTrips.py v1.26.0
<configuration>
    <net-file value="/Users/junlee/Desktop/2026-1/js/result/tradeoff_pet_top12_seed12_60min_20260417_024953/sumo_nets/cw_6511/network.net.xml"/>
    <output-trip-file value="/Users/junlee/Desktop/2026-1/js/result/tradeoff_pet_top12_seed12_60min_20260417_024953/sumo_nets/cw_6511/routes_seed43.trips.xml"/>
    <route-file value="/Users/junlee/Desktop/2026-1/js/result/tradeoff_pet_top12_seed12_60min_20260417_024953/sumo_nets/cw_6511/routes_seed43.rou.xml"/>
    <vehicle-class value="passenger"/>
    <seed value="43"/>
    <period value="2.6758279298160597"/>
</configuration>
-->

<routes xmlns:xsi="http://www.w3.org/2001/XMLSchema-instance" xsi:noNamespaceSchemaLocation="http://sumo.dlr.de/xsd/routes_file.xsd">
    <vType id="passenger" vClass="passenger"/>
    <trip id="0" depart="0.00" from="-273028084#6" to="198691071#1" type="passenger"/>
    <trip id="1" depart="2.68" from="273028084#7" to="620607766#0" type="passenger"/>
    <trip id="2" depart="5.35" from="198691057#1" to="775222468#3" type="passenger"/>
    <trip id="3" depart="8.03" from="775222468#0" to="620607766#3" type="passenger"/>
    <trip id="4" depart="10.70" from="198691057#1" to="-270279684#1" type="passenger"/>
    <trip id="5" depart="13.38" from="464461057#1" to="273028084#0" type="passenger"/>
    <trip id="6" depart="16.05" from="620607766#3" to="-775222468#1" type="passenger"/>
    <trip id="7" depart="18.73" from="777422408" to="198691092#1" type="passenger"/>
    <trip id="8" depart="21.41" from="-273028084#0" to="775222468#4" type="passenger"/>
    <trip id="9" depart="24.08" from="270279684#1" to="781985786#6" type="passenger"/>
    <trip id="10" depart="26.76" from="277257944#1" to="-270279684#1" type="passenger"/>
    <trip id="11" depart="29.43" from="273028084#1" to="620607766#0" type="passenger"/>
    <trip id="12" depart="32.11" from="781985786#0" to="-777422408" type="passenger"/>
    <trip id="13" depart="34.79" from="198691092#1" to="347237859#4" type="passenger"/>
    <trip id="14" depart="37.46" from="270279686#0" to="1109231376" type="passenger"/>
    <trip id="15" depart="40.14" from="-464461053#0" to="273028084#1" type="passenger"/>
    <trip id="16" depart="42.81" from="464461057#2" to="781985790#1" type="passenger"/>
    <trip id="17" depart="45.49" from="781985790#1" to="273028084#1" type="passenger"/>
    <trip id="18" depart="48.16" from="-270279686#0" to="-273028084#0" type="passenger"/>
    <trip id="19" depart="50.84" from="-270279686#1" to="322977650" type="passenger"/>
    <trip id="20" depart="53.52" from="-273028084#7" to="620607766#2" type="passenger"/>
    <trip id="21" depart="56.19" from="-273028084#1" to="198691092#2" type="passenger"/>
    <trip id="22" depart="58.87" from="464461053#0" to="913570918" type="passenger"/>
    <trip id="23" depart="61.54" from="781985786#0" to="781985784" type="passenger"/>
    <trip id="24" depart="64.22" from="775222468#1" to="198691061#0" type="passenger"/>
    <trip id="25" depart="66.90" from="-464461053#2" to="781985786#6" type="passenger"/>
    <trip id="26" depart="69.57" from="270279686#0" to="781985786#3" type="passenger"/>
    <trip id="27" depart="72.25" from="-781985790#3" to="-781985790#1" type="passenger"/>
    <trip id="28" depart="74.92" from="-464461053#0" to="-273028084#7" type="passenger"/>
    <trip id="29" depart="77.60" from="620607766#1" to="347237859#4" type="passenger"/>
    <trip id="30" depart="80.27" from="781985790#0" to="-464461053#1" type="passenger"/>
    <trip id="31" depart="82.95" from="-464461053#0" to="-464461053#1" type="passenger"/>
    <trip id="32" depart="85.63" from="-464461057#3" to="198691071#0" type="passenger"/>
    <trip id="33" depart="88.30" from="775222468#1" to="781985790#1" type="passenger"/>
    <trip id="34" depart="90.98" from="-273028084#5" to="464461057#3" type="passenger"/>
    <trip id="35" depart="93.65" from="-273028084#7" to="-198691055" type="passenger"/>
    <trip id="36" depart="96.33" from="273028084#1" to="-381226323" type="passenger"/>
    <trip id="37" depart="99.01" from="198691063#0" to="-198691062#0" type="passenger"/>
    <trip id="38" depart="101.68" from="198691057#1" to="-777422408" type="passenger"/>
    <trip id="39" depart="104.36" from="270279684#0" to="347237859#3" type="passenger"/>
    <trip id="40" depart="107.03" from="-775222468#3" to="347237859#3" type="passenger"/>
    <trip id="41" depart="109.71" from="-775222468#3" to="273028084#7" type="passenger"/>
    <trip id="42" depart="112.38" from="-270279684#1" to="347237859#4" type="passenger"/>
    <trip id="43" depart="115.06" from="-273028084#6" to="-464461053#2" type="passenger"/>
    <trip id="44" depart="117.74" from="381226323" to="198691072#1" type="passenger"/>
    <trip id="45" depart="120.41" from="273028084#4" to="-775222468#0" type="passenger"/>
    <trip id="46" depart="123.09" from="273028084#7" to="-775222468#1" type="passenger"/>
    <trip id="47" depart="125.76" from="198691082#1" to="198691065" type="passenger"/>
    <trip id="48" depart="128.44" from="781985786#1" to="464461057#2" type="passenger"/>
    <trip id="49" depart="131.12" from="273024752" to="464461053#0" type="passenger"/>
    <trip id="50" depart="133.79" from="-464461057#1" to="781985786#5" type="passenger"/>
    <trip id="51" depart="136.47" from="273028084#4" to="620607766#3" type="passenger"/>
    <trip id="52" depart="139.14" from="273024752" to="-198691062#1" type="passenger"/>
    <trip id="53" depart="141.82" from="-273028084#1" to="781985784" type="passenger"/>
    <trip id="54" depart="144.49" from="777422408" to="-464461057#0" type="passenger"/>
    <trip id="55" depart="147.17" from="913570918" to="273028084#2" type="passenger"/>
    <trip id="56" depart="149.85" from="381226323" to="198691091" type="passenger"/>
    <trip id="57" depart="152.52" from="-913570918" to="198691065" type="passenger"/>
    <trip id="58" depart="155.20" from="347237859#1" to="198691068" type="passenger"/>
    <trip id="59" depart="157.87" from="-781985790#0" to="620607766#1" type="passenger"/>
    <trip id="60" depart="160.55" from="-464461060" to="198691071#1" type="passenger"/>
    <trip id="61" depart="163.23" from="198691057#1" to="913570919" type="passenger"/>
    <trip id="62" depart="165.90" from="-464461060" to="273028084#0" type="passenger"/>
    <trip id="63" depart="168.58" from="-464461053#0" to="781985784" type="passenger"/>
    <trip id="64" depart="171.25" from="464461057#3" to="-464461053#0" type="passenger"/>
    <trip id="65" depart="173.93" from="-381226323" to="781985786#6" type="passenger"/>
    <trip id="66" depart="176.60" from="781985786#1" to="-464461057#3" type="passenger"/>
    <trip id="67" depart="179.28" from="775222468#4" to="775222468#2" type="passenger"/>
    <trip id="68" depart="181.96" from="620607766#2" to="-775222468#3" type="passenger"/>
    <trip id="69" depart="184.63" from="-273028084#7" to="347237859#3" type="passenger"/>
    <trip id="70" depart="187.31" from="198691082#0" to="273028084#7" type="passenger"/>
    <trip id="71" depart="189.98" from="-464461053#2" to="347237859#3" type="passenger"/>
    <trip id="72" depart="192.66" from="277257944#1" to="198691092#3" type="passenger"/>
    <trip id="73" depart="195.34" from="198691082#1" to="781985790#1" type="passenger"/>
    <trip id="74" depart="198.01" from="180445419" to="-198691091" type="passenger"/>
    <trip id="75" depart="200.69" from="777422408" to="775222468#1" type="passenger"/>
    <trip id="76" depart="203.36" from="-464461053#0" to="273028084#5" type="passenger"/>
    <trip id="77" depart="206.04" from="-464461053#2" to="775222468#4" type="passenger"/>
    <trip id="78" depart="208.71" from="198691062#1" to="-198691072#0" type="passenger"/>
    <trip id="79" depart="211.39" from="273028084#2" to="-198691091" type="passenger"/>
    <trip id="80" depart="214.07" from="777422408" to="781985786#5" type="passenger"/>
    <trip id="81" depart="216.74" from="464461057#1" to="-198691068" type="passenger"/>
    <trip id="82" depart="219.42" from="-273028084#1" to="-775222468#2" type="passenger"/>
    <trip id="83" depart="222.09" from="273028084#7" to="620607766#2" type="passenger"/>
    <trip id="84" depart="224.77" from="273028084#6" to="-464461053#2" type="passenger"/>
    <trip id="85" depart="227.45" from="-775222468#4" to="273028084#2" type="passenger"/>
    <trip id="86" depart="230.12" from="464461057#3" to="273028084#5" type="passenger"/>
    <trip id="87" depart="232.80" from="-781985790#3" to="620607766#1" type="passenger"/>
    <trip id="88" depart="235.47" from="775222468#0" to="322977650" type="passenger"/>
    <trip id="89" depart="238.15" from="-464461053#2" to="198691065" type="passenger"/>
    <trip id="90" depart="240.82" from="270279684#1" to="464461057#3" type="passenger"/>
    <trip id="91" depart="243.50" from="-273028084#2" to="198691065" type="passenger"/>
    <trip id="92" depart="246.18" from="347237859#1" to="198691082#3" type="passenger"/>
    <trip id="93" depart="248.85" from="464461057#0" to="-198691062#0" type="passenger"/>
    <trip id="94" depart="251.53" from="-781985790#1" to="-270279684#1" type="passenger"/>
    <trip id="95" depart="254.20" from="-270279686#0" to="-198691062#0" type="passenger"/>
    <trip id="96" depart="256.88" from="198691092#0" to="-198691090" type="passenger"/>
    <trip id="97" depart="259.56" from="277257944#1" to="-381226323" type="passenger"/>
    <trip id="98" depart="262.23" from="273028084#6" to="270279684#1" type="passenger"/>
    <trip id="99" depart="264.91" from="781985786#3" to="620607766#2" type="passenger"/>
    <trip id="100" depart="267.58" from="775222468#4" to="-775222468#4" type="passenger"/>
    <trip id="101" depart="270.26" from="-775222468#4" to="198691062#1" type="passenger"/>
    <trip id="102" depart="272.93" from="-270279686#1" to="273028084#2" type="passenger"/>
    <trip id="103" depart="275.61" from="-198691090" to="198691062#1" type="passenger"/>
    <trip id="104" depart="278.29" from="-781985790#0" to="-273028084#0" type="passenger"/>
    <trip id="105" depart="280.96" from="273028084#4" to="-775222468#2" type="passenger"/>
    <trip id="106" depart="283.64" from="-775222468#3" to="-775222468#3" type="passenger"/>
    <trip id="107" depart="286.31" from="1109231376" to="620607766#0" type="passenger"/>
    <trip id="108" depart="288.99" from="-464461057#2" to="-273028084#0" type="passenger"/>
    <trip id="109" depart="291.67" from="-781985790#4" to="270279686#0" type="passenger"/>
    <trip id="110" depart="294.34" from="-775222468#4" to="-270279686#0" type="passenger"/>
    <trip id="111" depart="297.02" from="180445419" to="781985790#3" type="passenger"/>
    <trip id="112" depart="299.69" from="777422408" to="198691068" type="passenger"/>
    <trip id="113" depart="302.37" from="273028084#7" to="464461053#0" type="passenger"/>
    <trip id="114" depart="305.04" from="-273028084#0" to="-775222468#3" type="passenger"/>
    <trip id="115" depart="307.72" from="-775222468#5" to="620607766#1" type="passenger"/>
    <trip id="116" depart="310.40" from="273028084#0" to="198691090" type="passenger"/>
    <trip id="117" depart="313.07" from="620607766#2" to="620607766#1" type="passenger"/>
    <trip id="118" depart="315.75" from="198691061#0" to="198691061#2" type="passenger"/>
    <trip id="119" depart="318.42" from="781985786#3" to="-198691062#1" type="passenger"/>
    <trip id="120" depart="321.10" from="464461057#0" to="-273028084#6" type="passenger"/>
    <trip id="121" depart="323.78" from="-464461053#1" to="-781985790#1" type="passenger"/>
    <trip id="122" depart="326.45" from="273028084#1" to="-775222468#4" type="passenger"/>
    <trip id="123" depart="329.13" from="198691092#0" to="198691090" type="passenger"/>
    <trip id="124" depart="331.80" from="781985786#2" to="270279686#1" type="passenger"/>
    <trip id="125" depart="334.48" from="-775222468#3" to="273028084#6" type="passenger"/>
    <trip id="126" depart="337.15" from="218915133#0" to="-775222468#2" type="passenger"/>
    <trip id="127" depart="339.83" from="381226323" to="-198691062#0" type="passenger"/>
    <trip id="128" depart="342.51" from="-273028084#5" to="913570918" type="passenger"/>
    <trip id="129" depart="345.18" from="198691061#0" to="198691092#3" type="passenger"/>
    <trip id="130" depart="347.86" from="620607766#1" to="-913570918" type="passenger"/>
    <trip id="131" depart="350.53" from="913570918" to="1109231376" type="passenger"/>
    <trip id="132" depart="353.21" from="-270279686#0" to="781985786#5" type="passenger"/>
    <trip id="133" depart="355.89" from="270279686#0" to="464461057#2" type="passenger"/>
    <trip id="134" depart="358.56" from="-775222468#5" to="-464461060" type="passenger"/>
    <trip id="135" depart="361.24" from="913570918" to="273028084#0" type="passenger"/>
    <trip id="136" depart="363.91" from="464461060" to="781985790#1" type="passenger"/>
    <trip id="137" depart="366.59" from="781985790#1" to="-781985790#1" type="passenger"/>
    <trip id="138" depart="369.26" from="620607766#3" to="347237859#3" type="passenger"/>
    <trip id="139" depart="371.94" from="781985786#0" to="781985786#1" type="passenger"/>
    <trip id="140" depart="374.62" from="-913570918" to="464461053#0" type="passenger"/>
    <trip id="141" depart="377.29" from="620607766#2" to="198691068" type="passenger"/>
    <trip id="142" depart="379.97" from="781985786#2" to="198691092#1" type="passenger"/>
    <trip id="143" depart="382.64" from="-781985790#4" to="273028084#5" type="passenger"/>
    <trip id="144" depart="385.32" from="-270279686#0" to="-775222468#4" type="passenger"/>
    <trip id="145" depart="388.00" from="-464461057#1" to="-198691062#0" type="passenger"/>
    <trip id="146" depart="390.67" from="270279684#1" to="-198691068" type="passenger"/>
    <trip id="147" depart="393.35" from="270279684#0" to="781985786#3" type="passenger"/>
    <trip id="148" depart="396.02" from="-198691090" to="198691072#1" type="passenger"/>
    <trip id="149" depart="398.70" from="620607766#2" to="-464461057#0" type="passenger"/>
    <trip id="150" depart="401.37" from="-273028084#5" to="-198691072#0" type="passenger"/>
    <trip id="151" depart="404.05" from="347237859#1" to="464461057#3" type="passenger"/>
    <trip id="152" depart="406.73" from="198691063#0" to="-781985790#1" type="passenger"/>
    <trip id="153" depart="409.40" from="464461060" to="620607766#2" type="passenger"/>
    <trip id="154" depart="412.08" from="-781985790#3" to="781985786#2" type="passenger"/>
    <trip id="155" depart="414.75" from="464461053#1" to="273028084#4" type="passenger"/>
    <trip id="156" depart="417.43" from="198691057#1" to="781985790#0" type="passenger"/>
    <trip id="157" depart="420.10" from="-270279686#1" to="775222468#2" type="passenger"/>
    <trip id="158" depart="422.78" from="-270279686#1" to="-775222468#1" type="passenger"/>
    <trip id="159" depart="425.46" from="198691063#0" to="620607766#1" type="passenger"/>
    <trip id="160" depart="428.13" from="464461060" to="464461053#2" type="passenger"/>
    <trip id="161" depart="430.81" from="381226323" to="198691090" type="passenger"/>
    <trip id="162" depart="433.48" from="-464461063" to="-198691062#0" type="passenger"/>
    <trip id="163" depart="436.16" from="-781985790#3" to="-775222468#4" type="passenger"/>
    <trip id="164" depart="438.84" from="198691082#1" to="-273028084#7" type="passenger"/>
    <trip id="165" depart="441.51" from="464461057#3" to="775222468#1" type="passenger"/>
    <trip id="166" depart="444.19" from="273028084#7" to="270279684#1" type="passenger"/>
    <trip id="167" depart="446.86" from="273028084#2" to="198691068" type="passenger"/>
    <trip id="168" depart="449.54" from="-273028084#6" to="781985786#2" type="passenger"/>
    <trip id="169" depart="452.21" from="273028084#0" to="-913570918" type="passenger"/>
    <trip id="170" depart="454.89" from="913570918" to="775222468#3" type="passenger"/>
    <trip id="171" depart="457.57" from="775222468#4" to="781985786#6" type="passenger"/>
    <trip id="172" depart="460.24" from="180445419" to="-273028084#1" type="passenger"/>
    <trip id="173" depart="462.92" from="781985786#2" to="347237859#2" type="passenger"/>
    <trip id="174" depart="465.59" from="-464461057#2" to="198691071#0" type="passenger"/>
    <trip id="175" depart="468.27" from="781985790#0" to="-273028084#4" type="passenger"/>
    <trip id="176" depart="470.95" from="273028084#0" to="198691092#1" type="passenger"/>
    <trip id="177" depart="473.62" from="-270279686#1" to="775222468#0" type="passenger"/>
    <trip id="178" depart="476.30" from="198691082#2" to="198691091" type="passenger"/>
    <trip id="179" depart="478.97" from="-270279684#1" to="-273028084#0" type="passenger"/>
    <trip id="180" depart="481.65" from="620607766#0" to="347237859#3" type="passenger"/>
    <trip id="181" depart="484.32" from="781985790#0" to="347237859#2" type="passenger"/>
    <trip id="182" depart="487.00" from="-464461057#3" to="273024752" type="passenger"/>
    <trip id="183" depart="489.68" from="273028084#6" to="-464461063" type="passenger"/>
    <trip id="184" depart="492.35" from="777422408" to="-781985790#0" type="passenger"/>
    <trip id="185" depart="495.03" from="273024752" to="781985790#4" type="passenger"/>
    <trip id="186" depart="497.70" from="-781985790#4" to="-464461063" type="passenger"/>
    <trip id="187" depart="500.38" from="464461063" to="913570919" type="passenger"/>
    <trip id="188" depart="503.06" from="-464461057#1" to="198691061#1" type="passenger"/>
    <trip id="189" depart="505.73" from="198691057#1" to="347237859#4" type="passenger"/>
    <trip id="190" depart="508.41" from="-273028084#2" to="273028084#2" type="passenger"/>
    <trip id="191" depart="511.08" from="-198691091" to="198691061#3" type="passenger"/>
    <trip id="192" depart="513.76" from="-464461053#1" to="775222468#0" type="passenger"/>
    <trip id="193" depart="516.43" from="270279686#0" to="464461057#1" type="passenger"/>
    <trip id="194" depart="519.11" from="273028084#7" to="464461063" type="passenger"/>
    <trip id="195" depart="521.79" from="464461053#0" to="620607766#2" type="passenger"/>
    <trip id="196" depart="524.46" from="-464461057#3" to="620607766#3" type="passenger"/>
    <trip id="197" depart="527.14" from="-273028084#2" to="464461057#3" type="passenger"/>
    <trip id="198" depart="529.81" from="-198691072#1" to="-198691062#0" type="passenger"/>
    <trip id="199" depart="532.49" from="464461053#0" to="464461053#1" type="passenger"/>
    <trip id="200" depart="535.17" from="464461057#3" to="1109231376" type="passenger"/>
    <trip id="201" depart="537.84" from="347237859#0" to="464461053#2" type="passenger"/>
    <trip id="202" depart="540.52" from="-464461057#3" to="-273028084#0" type="passenger"/>
    <trip id="203" depart="543.19" from="464461057#1" to="-464461053#2" type="passenger"/>
    <trip id="204" depart="545.87" from="620607766#2" to="277257944#1" type="passenger"/>
    <trip id="205" depart="548.54" from="781985786#6" to="-464461063" type="passenger"/>
    <trip id="206" depart="551.22" from="781985790#1" to="464461060" type="passenger"/>
    <trip id="207" depart="553.90" from="-273028084#2" to="-777422408" type="passenger"/>
    <trip id="208" depart="556.57" from="270279684#1" to="781985790#4" type="passenger"/>
    <trip id="209" depart="559.25" from="775222468#1" to="-775222468#3" type="passenger"/>
    <trip id="210" depart="561.92" from="270279684#1" to="198691082#3" type="passenger"/>
    <trip id="211" depart="564.60" from="198691090" to="198691090" type="passenger"/>
    <trip id="212" depart="567.28" from="381226321" to="-775222468#2" type="passenger"/>
    <trip id="213" depart="569.95" from="198691082#1" to="198691063#0" type="passenger"/>
    <trip id="214" depart="572.63" from="273024752" to="464461053#0" type="passenger"/>
    <trip id="215" depart="575.30" from="464461053#1" to="464461057#1" type="passenger"/>
    <trip id="216" depart="577.98" from="620607766#3" to="464461053#1" type="passenger"/>
    <trip id="217" depart="580.65" from="-198691090" to="-198691055" type="passenger"/>
    <trip id="218" depart="583.33" from="-464461057#1" to="198691090" type="passenger"/>
    <trip id="219" depart="586.01" from="464461057#0" to="-775222468#4" type="passenger"/>
    <trip id="220" depart="588.68" from="-270279686#0" to="273028084#0" type="passenger"/>
    <trip id="221" depart="591.36" from="-277257944#1" to="-781985790#1" type="passenger"/>
    <trip id="222" depart="594.03" from="347237859#0" to="464461057#3" type="passenger"/>
    <trip id="223" depart="596.71" from="347237859#0" to="-775222468#4" type="passenger"/>
    <trip id="224" depart="599.39" from="-198691068" to="-198691062#0" type="passenger"/>
    <trip id="225" depart="602.06" from="-273028084#6" to="-913570918" type="passenger"/>
    <trip id="226" depart="604.74" from="781985786#3" to="775222468#2" type="passenger"/>
    <trip id="227" depart="607.41" from="781985790#0" to="781985790#0" type="passenger"/>
    <trip id="228" depart="610.09" from="273028084#1" to="347237859#3" type="passenger"/>
    <trip id="229" depart="612.76" from="620607766#3" to="775222468#5" type="passenger"/>
    <trip id="230" depart="615.44" from="781985790#0" to="-775222468#1" type="passenger"/>
    <trip id="231" depart="618.12" from="-913570918" to="913570919" type="passenger"/>
    <trip id="232" depart="620.79" from="198691061#0" to="-198691055" type="passenger"/>
    <trip id="233" depart="623.47" from="270279684#1" to="620607766#1" type="passenger"/>
    <trip id="234" depart="626.14" from="775222468#1" to="273028084#4" type="passenger"/>
    <trip id="235" depart="628.82" from="464461060" to="775222468#0" type="passenger"/>
    <trip id="236" depart="631.50" from="-277257944#1" to="-775222468#0" type="passenger"/>
    <trip id="237" depart="634.17" from="-464461053#0" to="198691091" type="passenger"/>
    <trip id="238" depart="636.85" from="-781985790#3" to="-270279684#0" type="passenger"/>
    <trip id="239" depart="639.52" from="464461063" to="775222468#2" type="passenger"/>
    <trip id="240" depart="642.20" from="464461063" to="198691092#3" type="passenger"/>
    <trip id="241" depart="644.87" from="620607766#3" to="-464461063" type="passenger"/>
    <trip id="242" depart="647.55" from="-775222468#4" to="273028084#5" type="passenger"/>
    <trip id="243" depart="650.23" from="-273028084#1" to="-775222468#2" type="passenger"/>
    <trip id="244" depart="652.90" from="-913570918" to="-198691068" type="passenger"/>
    <trip id="245" depart="655.58" from="913570918" to="775222468#2" type="passenger"/>
    <trip id="246" depart="658.25" from="218915133#1" to="198691068" type="passenger"/>
    <trip id="247" depart="660.93" from="-198691071#0" to="198691092#3" type="passenger"/>
    <trip id="248" depart="663.61" from="-913570918" to="620607766#2" type="passenger"/>
    <trip id="249" depart="666.28" from="-277257944#1" to="-775222468#0" type="passenger"/>
    <trip id="250" depart="668.96" from="464461053#2" to="913570918" type="passenger"/>
    <trip id="251" depart="671.63" from="347237859#0" to="781985790#4" type="passenger"/>
    <trip id="252" depart="674.31" from="-273028084#5" to="270279686#1" type="passenger"/>
    <trip id="253" depart="676.98" from="620607766#3" to="-781985790#0" type="passenger"/>
    <trip id="254" depart="679.66" from="620607766#1" to="-198691062#0" type="passenger"/>
    <trip id="255" depart="682.34" from="-270279686#1" to="-464461053#1" type="passenger"/>
    <trip id="256" depart="685.01" from="620607766#3" to="273028084#2" type="passenger"/>
    <trip id="257" depart="687.69" from="-198691091" to="347237859#4" type="passenger"/>
    <trip id="258" depart="690.36" from="775222468#3" to="198691065" type="passenger"/>
    <trip id="259" depart="693.04" from="-464461053#1" to="-464461063" type="passenger"/>
    <trip id="260" depart="695.72" from="464461057#0" to="-198691091" type="passenger"/>
    <trip id="261" depart="698.39" from="-464461053#2" to="198691065" type="passenger"/>
    <trip id="262" depart="701.07" from="-270279686#0" to="-198691091" type="passenger"/>
    <trip id="263" depart="703.74" from="620607766#3" to="-775222468#2" type="passenger"/>
    <trip id="264" depart="706.42" from="1109231376" to="464461057#3" type="passenger"/>
    <trip id="265" depart="709.09" from="347237859#0" to="198691065" type="passenger"/>
    <trip id="266" depart="711.77" from="620607766#3" to="273028084#2" type="passenger"/>
    <trip id="267" depart="714.45" from="-775222468#3" to="-777422408" type="passenger"/>
    <trip id="268" depart="717.12" from="381226323" to="781985786#2" type="passenger"/>
    <trip id="269" depart="719.80" from="-464461060" to="270279684#1" type="passenger"/>
    <trip id="270" depart="722.47" from="775222468#4" to="775222468#2" type="passenger"/>
    <trip id="271" depart="725.15" from="781985786#3" to="198691090" type="passenger"/>
    <trip id="272" depart="727.83" from="-273028084#0" to="620607766#1" type="passenger"/>
    <trip id="273" depart="730.50" from="273028084#7" to="347237859#3" type="passenger"/>
    <trip id="274" depart="733.18" from="464461053#0" to="198691068" type="passenger"/>
    <trip id="275" depart="735.85" from="273028084#6" to="1109231376" type="passenger"/>
    <trip id="276" depart="738.53" from="-464461057#2" to="620607766#0" type="passenger"/>
    <trip id="277" depart="741.20" from="-270279684#1" to="198691082#3" type="passenger"/>
    <trip id="278" depart="743.88" from="-781985790#4" to="-270279686#1" type="passenger"/>
    <trip id="279" depart="746.56" from="-273028084#0" to="198691065" type="passenger"/>
    <trip id="280" depart="749.23" from="775222468#3" to="775222468#0" type="passenger"/>
    <trip id="281" depart="751.91" from="277257944#1" to="464461053#2" type="passenger"/>
    <trip id="282" depart="754.58" from="777422408" to="-913570918" type="passenger"/>
    <trip id="283" depart="757.26" from="464461053#1" to="775222468#0" type="passenger"/>
    <trip id="284" depart="759.94" from="464461057#1" to="273028084#5" type="passenger"/>
    <trip id="285" depart="762.61" from="270279686#1" to="-775222468#2" type="passenger"/>
    <trip id="286" depart="765.29" from="180445419" to="-464461053#2" type="passenger"/>
    <trip id="287" depart="767.96" from="-198691062#1" to="-198691072#1" type="passenger"/>
    <trip id="288" depart="770.64" from="-270279684#1" to="913570919" type="passenger"/>
    <trip id="289" depart="773.31" from="273024752" to="-270279684#0" type="passenger"/>
    <trip id="290" depart="775.99" from="775222468#4" to="464461057#3" type="passenger"/>
    <trip id="291" depart="778.67" from="-273028084#6" to="-775222468#0" type="passenger"/>
    <trip id="292" depart="781.34" from="-781985790#4" to="198691061#0" type="passenger"/>
    <trip id="293" depart="784.02" from="464461057#2" to="781985790#1" type="passenger"/>
    <trip id="294" depart="786.69" from="-464461053#2" to="781985790#4" type="passenger"/>
    <trip id="295" depart="789.37" from="775222468#0" to="322977650" type="passenger"/>
    <trip id="296" depart="792.05" from="464461053#1" to="-777422408" type="passenger"/>
    <trip id="297" depart="794.72" from="-464461053#2" to="-270279684#0" type="passenger"/>
    <trip id="298" depart="797.40" from="-781985790#0" to="273028084#2" type="passenger"/>
    <trip id="299" depart="800.07" from="1109231376" to="-273028084#5" type="passenger"/>
    <trip id="300" depart="802.75" from="198691082#0" to="270279684#1" type="passenger"/>
    <trip id="301" depart="805.42" from="277257944#1" to="347237859#3" type="passenger"/>
    <trip id="302" depart="808.10" from="-781985790#1" to="198691072#1" type="passenger"/>
    <trip id="303" depart="810.78" from="464461053#1" to="781985786#4" type="passenger"/>
    <trip id="304" depart="813.45" from="381226321" to="198691090" type="passenger"/>
    <trip id="305" depart="816.13" from="-198691068" to="198691071#0" type="passenger"/>
    <trip id="306" depart="818.80" from="198691062#1" to="198691092#2" type="passenger"/>
    <trip id="307" depart="821.48" from="-781985790#1" to="620607766#0" type="passenger"/>
    <trip id="308" depart="824.16" from="1109231376" to="781985784" type="passenger"/>
    <trip id="309" depart="826.83" from="781985786#5" to="464461053#0" type="passenger"/>
    <trip id="310" depart="829.51" from="-273028084#1" to="620607766#3" type="passenger"/>
    <trip id="311" depart="832.18" from="464461053#0" to="464461057#2" type="passenger"/>
    <trip id="312" depart="834.86" from="180445419" to="-464461063" type="passenger"/>
    <trip id="313" depart="837.53" from="180445419" to="464461057#3" type="passenger"/>
    <trip id="314" depart="840.21" from="-464461053#0" to="464461057#3" type="passenger"/>
    <trip id="315" depart="842.89" from="-775222468#4" to="270279686#0" type="passenger"/>
    <trip id="316" depart="845.56" from="273028084#2" to="-273028084#6" type="passenger"/>
    <trip id="317" depart="848.24" from="-781985790#0" to="198691061#0" type="passenger"/>
    <trip id="318" depart="850.91" from="-464461063" to="-273028084#0" type="passenger"/>
    <trip id="319" depart="853.59" from="464461053#1" to="198691082#3" type="passenger"/>
    <trip id="320" depart="856.26" from="464461063" to="-464461053#0" type="passenger"/>
    <trip id="321" depart="858.94" from="913570919" to="-198691091" type="passenger"/>
    <trip id="322" depart="861.62" from="-913570918" to="198691090" type="passenger"/>
    <trip id="323" depart="864.29" from="781985786#4" to="781985786#6" type="passenger"/>
    <trip id="324" depart="866.97" from="273024752" to="198691071#1" type="passenger"/>