<?xml version="1.0" encoding="UTF-8"?>

<!-- generated on 2026-04-17 02:51:36.768101 by Eclipse SUMO randomTrips.py v1.26.0
<configuration>
    <net-file value="/Users/junlee/Desktop/2026-1/js/result/tradeoff_pet_top12_seed12_60min_20260417_024953/sumo_nets/cw_6511/network.net.xml"/>
    <output-trip-file value="/Users/junlee/Desktop/2026-1/js/result/tradeoff_pet_top12_seed12_60min_20260417_024953/sumo_nets/cw_6511/routes_seed46.trips.xml"/>
    <route-file value="/Users/junlee/Desktop/2026-1/js/result/tradeoff_pet_top12_seed12_60min_20260417_024953/sumo_nets/cw_6511/routes_seed46.rou.xml"/>
    <vehicle-class value="passenger"/>
    <seed value="46"/>
    <period value="2.6774199998639454"/>
</configuration>
-->

<routes xmlns:xsi="http://www.w3.org/2001/XMLSchema-instance" xsi:noNamespaceSchemaLocation="http://sumo.dlr.de/xsd/routes_file.xsd">
    <vType id="passenger" vClass="passenger"/>
    <trip id="0" depart="0.00" from="777422408" to="198691061#1" type="passenger"/>
    <trip id="1" depart="2.68" from="270279686#0" to="775222468#4" type="passenger"/>
    <trip id="2" depart="5.35" from="-464461057#3" to="198691091" type="passenger"/>
    <trip id="3" depart="8.03" from="270279684#1" to="781985790#0" type="passenger"/>
    <trip id="4" depart="10.71" from="-198691071#0" to="-198691090" type="passenger"/>
    <trip id="5" depart="13.39" from="-781985790#3" to="775222468#0" type="passenger"/>
    <trip id="6" depart="16.06" from="620607766#3" to="-273028084#1" type="passenger"/>
    <trip id="7" depart="18.74" from="781985786#2" to="198691092#1" type="passenger"/>
    <trip id="8" depart="21.42" from="781985790#1" to="781985786#6" type="passenger"/>
    <trip id="9" depart="24.10" from="-270279686#1" to="783692390" type="passenger"/>
    <trip id="10" depart="26.77" from="198691082#1" to="-273028084#5" type="passenger"/>
    <trip id="11" depart="29.45" from="198691082#0" to="-198691090" type="passenger"/>
    <trip id="12" depart="32.13" from="464461053#1" to="198691092#3" type="passenger"/>
    <trip id="13" depart="34.81" from="-273028084#1" to="-464461053#2" type="passenger"/>
    <trip id="14" depart="37.48" from="-775222468#3" to="-270279686#0" type="passenger"/>
    <trip id="15" depart="40.16" from="180445419" to="-198691090" type="passenger"/>
    <trip id="16" depart="42.84" from="-464461053#0" to="-775222468#2" type="passenger"/>
    <trip id="17" depart="45.52" from="464461057#1" to="-381226323" type="passenger"/>
    <trip id="18" depart="48.19" from="277257944#1" to="-198691072#1" type="passenger"/>
    <trip id="19" depart="50.87" from="-775222468#4" to="-270279686#1" type="passenger"/>
    <trip id="20" depart="53.55" from="218915133#0" to="-913570918" type="passenger"/>
    <trip id="21" depart="56.23" from="464461053#2" to="270279686#0" type="passenger"/>
    <trip id="22" depart="58.90" from="270279684#1" to="-273028084#7" type="passenger"/>
    <trip id="23" depart="61.58" from="-273028084#0" to="775222468#4" type="passenger"/>
    <trip id="24" depart="64.26" from="-381226323" to="-198691055" type="passenger"/>
    <trip id="25" depart="66.94" from="381226321" to="-277257944#1" type="passenger"/>
    <trip id="26" depart="69.61" from="781985786#5" to="-198691062#1" type="passenger"/>
    <trip id="27" depart="72.29" from="273028084#5" to="-198691068" type="passenger"/>
    <trip id="28" depart="74.97" from="464461057#1" to="-913570918" type="passenger"/>
    <trip id="29" depart="77.65" from="-270279686#0" to="198691061#0" type="passenger"/>
    <trip id="30" depart="80.32" from="273028084#5" to="-273028084#1" type="passenger"/>
    <trip id="31" depart="83.00" from="620607766#1" to="464461053#1" type="passenger"/>
    <trip id="32" depart="85.68" from="198691082#0" to="347237859#4" type="passenger"/>
    <trip id="33" depart="88.35" from="-781985790#1" to="-273028084#1" type="passenger"/>
    <trip id="34" depart="91.03" from="-198691071#1" to="-198691072#0" type="passenger"/>
    <trip id="35" depart="93.71" from="-781985790#3" to="277257944#1" type="passenger"/>
    <trip id="36" depart="96.39" from="381226323" to="781985786#2" type="passenger"/>
    <trip id="37" depart="99.06" from="781985786#1" to="-198691072#0" type="passenger"/>
    <trip id="38" depart="101.74" from="-464461063" to="198691061#0" type="passenger"/>
    <trip id="39" depart="104.42" from="-781985790#0" to="270279684#1" type="passenger"/>
    <trip id="40" depart="107.10" from="-464461060" to="781985786#2" type="passenger"/>
    <trip id="41" depart="109.77" from="781985786#3" to="322977650" type="passenger"/>
    <trip id="42" depart="112.45" from="-775222468#3" to="-198691072#0" type="passenger"/>
    <trip id="43" depart="115.13" from="913570919" to="781985786#4" type="passenger"/>
    <trip id="44" depart="117.81" from="198691082#2" to="-198691072#1" type="passenger"/>
    <trip id="45" depart="120.48" from="464461057#0" to="-775222468#1" type="passenger"/>
    <trip id="46" depart="123.16" from="781985786#2" to="775222468#3" type="passenger"/>
    <trip id="47" depart="125.84" from="-270279684#1" to="277257944#1" type="passenger"/>
    <trip id="48" depart="128.52" from="-322977650" to="-198691055" type="passenger"/>
    <trip id="49" depart="131.19" from="273028084#6" to="464461053#2" type="passenger"/>
    <trip id="50" depart="133.87" from="381226321" to="-270279684#0" type="passenger"/>
    <trip id="51" depart="136.55" from="-464461057#3" to="198691092#3" type="passenger"/>
    <trip id="52" depart="139.23" from="273024752" to="464461053#2" type="passenger"/>
    <trip id="53" depart="141.90" from="-464461057#1" to="-781985790#0" type="passenger"/>
    <trip id="54" depart="144.58" from="-277257944#1" to="198691082#3" type="passenger"/>
    <trip id="55" depart="147.26" from="-775222468#5" to="-270279686#1" type="passenger"/>
    <trip id="56" depart="149.94" from="-781985790#4" to="-775222468#1" type="passenger"/>
    <trip id="57" depart="152.61" from="270279686#0" to="775222468#5" type="passenger"/>
    <trip id="58" depart="155.29" from="273028084#4" to="783692390" type="passenger"/>
    <trip id="59" depart="157.97" from="198691082#2" to="198691072#1" type="passenger"/>
    <trip id="60" depart="160.65" from="273028084#5" to="781985786#6" type="passenger"/>
    <trip id="61" depart="163.32" from="620607766#0" to="775222468#1" type="passenger"/>
    <trip id="62" depart="166.00" from="-270279684#1" to="273028084#4" type="passenger"/>
    <trip id="63" depart="168.68" from="-273028084#1" to="198691091" type="passenger"/>
    <trip id="64" depart="171.35" from="-273028084#5" to="270279686#1" type="passenger"/>
    <trip id="65" depart="174.03" from="273028084#1" to="464461063" type="passenger"/>
    <trip id="66" depart="176.71" from="-781985790#4" to="198691062#1" type="passenger"/>
    <trip id="67" depart="179.39" from="-913570918" to="-464461053#0" type="passenger"/>
    <trip id="68" depart="182.06" from="464461057#1" to="464461053#0" type="passenger"/>
    <trip id="69" depart="184.74" from="-781985790#4" to="781985786#3" type="passenger"/>
    <trip id="70" depart="187.42" from="-273028084#6" to="-270279684#0" type="passenger"/>
    <trip id="71" depart="190.10" from="198691072#0" to="-198691062#1" type="passenger"/>
    <trip id="72" depart="192.77" from="781985786#1" to="775222468#0" type="passenger"/>
    <trip id="73" depart="195.45" from="464461057#1" to="-273028084#0" type="passenger"/>
    <trip id="74" depart="198.13" from="-464461060" to="198691072#1" type="passenger"/>
    <trip id="75" depart="200.81" from="-464461053#0" to="775222468#1" type="passenger"/>
    <trip id="76" depart="203.48" from="-781985790#3" to="775222468#4" type="passenger"/>
    <trip id="77" depart="206.16" from="775222468#3" to="273028084#6" type="passenger"/>
    <trip id="78" depart="208.84" from="-270279684#1" to="781985786#6" type="passenger"/>
    <trip id="79" depart="211.52" from="-322977650" to="-198691091" type="passenger"/>
    <trip id="80" depart="214.19" from="775222468#1" to="-277257944#1" type="passenger"/>
    <trip id="81" depart="216.87" from="781985786#3" to="-781985790#1" type="passenger"/>
    <trip id="82" depart="219.55" from="180445419" to="464461053#1" type="passenger"/>
    <trip id="83" depart="222.23" from="381226323" to="-775222468#0" type="passenger"/>
    <trip id="84" depart="224.90" from="-775222468#3" to="-198691062#1" type="passenger"/>
    <trip id="85" depart="227.58" from="198691057#1" to="347237859#4" type="passenger"/>
    <trip id="86" depart="230.26" from="775222468#3" to="775222468#1" type="passenger"/>
    <trip id="87" depart="232.94" from="198691061#1" to="-198691068" type="passenger"/>
    <trip id="88" depart="235.61" from="464461057#1" to="-273028084#4" type="passenger"/>
    <trip id="89" depart="238.29" from="775222468#0" to="775222468#0" type="passenger"/>
    <trip id="90" depart="240.97" from="775222468#3" to="-198691072#0" type="passenger"/>
    <trip id="91" depart="243.65" from="270279686#0" to="-198691068" type="passenger"/>
    <trip id="92" depart="246.32" from="277257944#1" to="-913570918" type="passenger"/>
    <trip id="93" depart="249.00" from="-273028084#6" to="273028084#5" type="passenger"/>
    <trip id="94" depart="251.68" from="781985786#6" to="270279686#1" type="passenger"/>
    <trip id="95" depart="254.35" from="198691057#1" to="198691092#3" type="passenger"/>
    <trip id="96" depart="257.03" from="781985786#4" to="-273028084#6" type="passenger"/>
    <trip id="97" depart="259.71" from="347237859#0" to="781985790#1" type="passenger"/>
    <trip id="98" depart="262.39" from="273028084#7" to="-270279686#0" type="passenger"/>
    <trip id="99" depart="265.06" from="464461060" to="198691092#1" type="passenger"/>
    <trip id="100" depart="267.74" from="-464461053#0" to="347237859#4" type="passenger"/>
    <trip id="101" depart="270.42" from="775222468#3" to="464461053#1" type="passenger"/>
    <trip id="102" depart="273.10" from="781985786#6" to="-273028084#4" type="passenger"/>
    <trip id="103" depart="275.77" from="913570919" to="775222468#4" type="passenger"/>
    <trip id="104" depart="278.45" from="180445419" to="198691092#2" type="passenger"/>
    <trip id="105" depart="281.13" from="620607766#2" to="464461057#1" type="passenger"/>
    <trip id="106" depart="283.81" from="-198691072#1" to="198691062#1" type="passenger"/>
    <trip id="107" depart="286.48" from="273024752" to="781985786#6" type="passenger"/>
    <trip id="108" depart="289.16" from="781985786#1" to="270279684#1" type="passenger"/>
    <trip id="109" depart="291.84" from="-775222468#4" to="620607766#0" type="passenger"/>
    <trip id="110" depart="294.52" from="218915133#1" to="-270279684#0" type="passenger"/>
    <trip id="111" depart="297.19" from="464461057#2" to="781985786#3" type="passenger"/>
    <trip id="112" depart="299.87" from="218915133#1" to="-273028084#2" type="passenger"/>
    <trip id="113" depart="302.55" from="198691082#1" to="198691090" type="passenger"/>
    <trip id="114" depart="305.23" from="781985790#0" to="-198691072#0" type="passenger"/>
    <trip id="115" depart="307.90" from="273028084#4" to="198691082#3" type="passenger"/>
    <trip id="116" depart="310.58" from="913570918" to="-273028084#7" type="passenger"/>
    <trip id="117" depart="313.26" from="781985786#3" to="-277257944#1" type="passenger"/>
    <trip id="118" depart="315.94" from="180445419" to="775222468#3" type="passenger"/>
    <trip id="119" depart="318.61" from="-775222468#5" to="198691068" type="passenger"/>
    <trip id="120" depart="321.29" from="-273028084#1" to="781985790#3" type="passenger"/>
    <trip id="121" depart="323.97" from="381226321" to="270279686#0" type="passenger"/>
    <trip id="122" depart="326.65" from="-775222468#4" to="913570918" type="passenger"/>
    <trip id="123" depart="329.32" from="273028084#7" to="-781985790#0" type="passenger"/>
    <trip id="124" depart="332.00" from="-464461057#3" to="775222468#3" type="passenger"/>
    <trip id="125" depart="334.68" from="-273028084#5" to="775222468#3" type="passenger"/>
    <trip id="126" depart="337.35" from="620607766#2" to="464461057#3" type="passenger"/>
    <trip id="127" depart="340.03" from="-273028084#4" to="781985790#3" type="passenger"/>
    <trip id="128" depart="342.71" from="620607766#0" to="-273028084#7" type="passenger"/>
    <trip id="129" depart="345.39" from="198691082#0" to="273024752" type="passenger"/>
    <trip id="130" depart="348.06" from="777422408" to="-273028084#5" type="passenger"/>
    <trip id="131" depart="350.74" from="464461057#3" to="198691061#3" type="passenger"/>
    <trip id="132" depart="353.42" from="-270279684#1" to="-775222468#2" type="passenger"/>
    <trip id="133" depart="356.10" from="775222468#2" to="-270279686#0" type="passenger"/>
    <trip id="134" depart="358.77" from="781985790#0" to="464461057#2" type="passenger"/>
    <trip id="135" depart="361.45" from="464461057#2" to="620607766#2" type="passenger"/>
    <trip id="136" depart="364.13" from="620607766#1" to="781985786#4" type="passenger"/>
    <trip id="137" depart="366.81" from="781985790#0" to="781985784" type="passenger"/>
    <trip id="138" depart="369.48" from="777422408" to="-273028084#1" type="passenger"/>
    <trip id="139" depart="372.16" from="775222468#3" to="913570918" type="passenger"/>
    <trip id="140" depart="374.84" from="464461053#1" to="347237859#4" type="passenger"/>
    <trip id="141" depart="377.52" from="273028084#0" to="198691061#3" type="passenger"/>
    <trip id="142" depart="380.19" from="198691091" to="322977650" type="passenger"/>
    <trip id="143" depart="382.87" from="781985786#1" to="-270279686#1" type="passenger"/>
    <trip id="144" depart="385.55" from="-464461060" to="775222468#1" type="passenger"/>
    <trip id="145" depart="388.23" from="347237859#1" to="-270279686#1" type="passenger"/>
    <trip id="146" depart="390.90" from="273028084#6" to="-198691090" type="passenger"/>
    <trip id="147" depart="393.58" from="273028084#5" to="198691090" type="passenger"/>
    <trip id="148" depart="396.26" from="781985790#1" to="273028084#2" type="passenger"/>
    <trip id="149" depart="398.94" from="273028084#2" to="198691062#1" type="passenger"/>
    <trip id="150" depart="401.61" from="273028084#2" to="781985790#0" type="passenger"/>
    <trip id="151" depart="404.29" from="464461053#1" to="620607766#0" type="passenger"/>
    <trip id="152" depart="406.97" from="913570918" to="781985790#3" type="passenger"/>
    <trip id="153" depart="409.65" from="-464461057#3" to="775222468#0" type="passenger"/>
    <trip id="154" depart="412.32" from="913570919" to="273028084#7" type="passenger"/>
    <trip id="155" depart="415.00" from="-270279686#1" to="781985786#3" type="passenger"/>
    <trip id="156" depart="417.68" from="-464461060" to="620607766#0" type="passenger"/>
    <trip id="157" depart="420.35" from="-270279686#1" to="198691092#2" type="passenger"/>
    <trip id="158" depart="423.03" from="781985786#0" to="273028084#2" type="passenger"/>
    <trip id="159" depart="425.71" from="381226323" to="775222468#5" type="passenger"/>
    <trip id="160" depart="428.39" from="-464461057#1" to="781985790#0" type="passenger"/>
    <trip id="161" depart="431.06" from="464461057#2" to="-273028084#0" type="passenger"/>
    <trip id="162" depart="433.74" from="-270279686#1" to="-198691055" type="passenger"/>
    <trip id="163" depart="436.42" from="198691063#0" to="464461057#1" type="passenger"/>
    <trip id="164" depart="439.10" from="-781985790#4" to="198691061#2" type="passenger"/>
    <trip id="165" depart="441.77" from="198691057#1" to="781985790#1" type="passenger"/>
    <trip id="166" depart="444.45" from="273028084#6" to="913570918" type="passenger"/>
    <trip id="167" depart="447.13" from="-464461057#1" to="775222468#4" type="passenger"/>
    <trip id="168" depart="449.81" from="273024752" to="198691061#3" type="passenger"/>
    <trip id="169" depart="452.48" from="775222468#2" to="-198691091" type="passenger"/>
    <trip id="170" depart="455.16" from="273028084#7" to="198691062#1" type="passenger"/>
    <trip id="171" depart="457.84" from="218915133#0" to="-198691072#0" type="passenger"/>
    <trip id="172" depart="460.52" from="-464461053#1" to="-198691055" type="passenger"/>
    <trip id="173" depart="463.19" from="-273028084#0" to="464461063" type="passenger"/>
    <trip id="174" depart="465.87" from="-781985790#3" to="-781985790#3" type="passenger"/>
    <trip id="175" depart="468.55" from="620607766#2" to="-464461053#0" type="passenger"/>
    <trip id="176" depart="471.23" from="781985790#1" to="-198691072#0" type="passenger"/>
    <trip id="177" depart="473.90" from="-198691071#1" to="347237859#4" type="passenger"/>
    <trip id="178" depart="476.58" from="198691082#0" to="198691090" type="passenger"/>
    <trip id="179" depart="479.26" from="-781985790#1" to="781985790#0" type="passenger"/>
    <trip id="180" depart="481.94" from="273028084#5" to="775222468#2" type="passenger"/>
    <trip id="181" depart="484.61" from="781985790#1" to="781985790#0" type="passenger"/>
    <trip id="182" depart="487.29" from="781985786#3" to="620607766#1" type="passenger"/>
    <trip id="183" depart="489.97" from="-273028084#1" to="198691062#1" type="passenger"/>
    <trip id="184" depart="492.65" from="620607766#1" to="198691071#1" type="passenger"/>
    <trip id="185" depart="495.32" from="273028084#7" to="-273028084#0" type="passenger"/>
    <trip id="186" depart="498.00" from="273028084#4" to="464461057#1" type="passenger"/>
    <trip id="187" depart="500.68" from="-781985790#3" to="-273028084#0" type="passenger"/>
    <trip id="188" depart="503.35" from="-781985790#1" to="-198691072#0" type="passenger"/>
    <trip id="189" depart="506.03" from="347237859#0" to="464461057#2" type="passenger"/>
    <trip id="190" depart="508.71" from="270279684#1" to="-381226321" type="passenger"/>
    <trip id="191" depart="511.39" from="-273028084#5" to="273028084#0" type="passenger"/>
    <trip id="192" depart="514.06" from="464461053#1" to="-913570918" type="passenger"/>
    <trip id="193" depart="516.74" from="270279684#1" to="-464461060" type="passenger"/>
    <trip id="194" depart="519.42" from="464461053#0" to="781985786#6" type="passenger"/>
    <trip id="195" depart="522.10" from="381226321" to="-464461057#0" type="passenger"/>
    <trip id="196" depart="524.77" from="-464461053#0" to="-775222468#1" type="passenger"/>
    <trip id="197" depart="527.45" from="-464461057#3" to="464461063" type="passenger"/>
    <trip id="198" depart="530.13" from="-775222468#4" to="-198691072#0" type="passenger"/>
    <trip id="199" depart="532.81" from="-273028084#0" to="198691061#2" type="passenger"/>
    <trip id="200" depart="535.48" from="-270279686#1" to="-775222468#4" type="passenger"/>
    <trip id="201" depart="538.16" from="-270279686#1" to="-775222468#3" type="passenger"/>
    <trip id="202" depart="540.84" from="198691057#1" to="781985786#4" type="passenger"/>
    <trip id="203" depart="543.52" from="-464461060" to="913570918" type="passenger"/>
    <trip id="204" depart="546.19" from="464461057#3" to="-381226323" type="passenger"/>
    <trip id="205" depart="548.87" from="-273028084#6" to="198691065" type="passenger"/>
    <trip id="206" depart="551.55" from="620607766#0" to="273028084#7" type="passenger"/>
    <trip id="207" depart="554.23" from="273028084#1" to="781985790#1" type="passenger"/>
    <trip id="208" depart="556.90" from="777422408" to="775222468#5" type="passenger"/>
    <trip id="209" depart="559.58" from="-270279686#1" to="273028084#0" type="passenger"/>
    <trip id="210" depart="562.26" from="464461057#2" to="-775222468#4" type="passenger"/>
    <trip id="211" depart="564.94" from="198691055" to="-198691062#1" type="passenger"/>
    <trip id="212" depart="567.61" from="-464461053#1" to="464461063" type="passenger"/>
    <trip id="213" depart="570.29" from="913570919" to="464461057#1" type="passenger"/>
    <trip id="214" depart="572.97" from="464461057#0" to="198691068" type="passenger"/>
    <trip id="215" depart="575.65" from="-775222468#5" to="775222468#4" type="passenger"/>
    <trip id="216" depart="578.32" from="464461053#2" to="913570918" type="passenger"/>
    <trip id="217" depart="581.00" from="-198691068" to="322977650" type="passenger"/>
    <trip id="218" depart="583.68" from="273028084#0" to="198691090" type="passenger"/>
    <trip id="219" depart="586.35" from="464461057#2" to="198691061#0" type="passenger"/>
    <trip id="220" depart="589.03" from="198691082#0" to="464461053#0" type="passenger"/>
    <trip id="221" depart="591.71" from="273028084#5" to="198691071#1" type="passenger"/>
    <trip id="222" depart="594.39" from="-273028084#7" to="-464461060" type="passenger"/>
    <trip id="223" depart="597.06" from="198691082#0" to="273028084#6" type="passenger"/>
    <trip id="224" depart="599.74" from="775222468#1" to="198691090" type="passenger"/>
    <trip id="225" depart="602.42" from="273024752" to="620607766#1" type="passenger"/>
    <trip id="226" depart="605.10" from="464461053#1" to="347237859#3" type="passenger"/>
    <trip id="227" depart="607.77" from="273028084#4" to="-775222468#1" type="passenger"/>
    <trip id="228" depart="610.45" from="218915133#1" to="775222468#4" type="passenger"/>
    <trip id="229" depart="613.13" from="464461057#1" to="620607766#2" type="passenger"/>
    <trip id="230" depart="615.81" from="-273028084#7" to="198691061#0" type="passenger"/>
    <trip id="231" depart="618.48" from="273028084#5" to="198691061#3" type="passenger"/>
    <trip id="232" depart="621.16" from="-322977650" to="-198691090" type="passenger"/>
    <trip id="233" depart="623.84" from="-464461060" to="-270279686#1" type="passenger"/>
    <trip id="234" depart="626.52" from="1109231376" to="783692390" type="passenger"/>
    <trip id="235" depart="629.19" from="775222468#2" to="198691065" type="passenger"/>
    <trip id="236" depart="631.87" from="620607766#0" to="273028084#1" type="passenger"/>
    <trip id="237" depart="634.55" from="-464461053#2" to="775222468#5" type="passenger"/>
    <trip id="238" depart="637.23" from="273024752" to="-277257944#1" type="passenger"/>
    <trip id="239" depart="639.90" from="347237859#1" to="-270279686#0" type="passenger"/>
    <trip id="240" depart="642.58" from="620607766#1" to="-273028084#5" type="passenger"/>
    <trip id="241" depart="645.26" from="-273028084#4" to="-781985790#1" type="passenger"/>
    <trip id="242" depart="647.94" from="198691057#1" to="464461063" type="passenger"/>
    <trip id="243" depart="650.61" from="-464461057#2" to="270279686#0" type="passenger"/>
    <trip id="244" depart="653.29" from="781985786#4" to="-270279686#1" type="passenger"/>
    <trip id="245" depart="655.97" from="620607766#2" to="-198691055" type="passenger"/>
    <trip id="246" depart="658.65" from="464461053#0" to="273028084#4" type="passenger"/>
    <trip id="247" depart="661.32" from="218915133#0" to="781985786#3" type="passenger"/>
    <trip id="248" depart="664.00" from="781985786#4" to="347237859#3" type="passenger"/>
    <trip id="249" depart="666.68" from="781985786#6" to="273028084#6" type="passenger"/>
    <trip id="250" depart="669.35" from="464461057#3" to="-273028084#7" type="passenger"/>
    <trip id="251" depart="672.03" from="775222468#4" to="198691090" type="passenger"/>
    <trip id="252" depart="674.71" from="-781985790#3" to="781985790#1" type="passenger"/>
    <trip id="253" depart="677.39" from="620607766#2" to="-270279686#0" type="passenger"/>
    <trip id="254" depart="680.06" from="-464461053#0" to="781985786#4" type="passenger"/>
    <trip id="255" depart="682.74" from="-464461057#1" to="913570918" type="passenger"/>
    <trip id="256" depart="685.42" from="-273028084#1" to="273028084#1" type="passenger"/>
    <trip id="257" depart="688.10" from="781985786#3" to="-273028084#1" type="passenger"/>
    <trip id="258" depart="690.77" from="-198691090" to="-198691068" type="passenger"/>
    <trip id="259" depart="693.45" from="273028084#1" to="-775222468#0" type="passenger"/>
    <trip id="260" depart="696.13" from="-464461053#0" to="913570919" type="passenger"/>
    <trip id="261" depart="698.81" from="775222468#4" to="273028084#2" type="passenger"/>
    <trip id="262" depart="701.48" from="-464461063" to="-273028084#2" type="passenger"/>
    <trip id="263" depart="704.16" from="-464461057#3" to="781985790#4" type="passenger"/>
    <trip id="264" depart="706.84" from="464461053#2" to="198691082#3" type="passenger"/>
    <trip id="265" depart="709.52" from="198691061#0" to="347237859#4" type="passenger"/>
    <trip id="266" depart="712.19" from="198691082#1" to="-198691055" type="passenger"/>
    <trip id="267" depart="714.87" from="-464461060" to="198691090" type="passenger"/>
    <trip id="268" depart="717.55" from="913570918" to="464461053#2" type="passenger"/>
    <trip id="269" depart="720.23" from="464461057#2" to="-273028084#0" type="passenger"/>
    <trip id="270" depart="722.90" from="620607766#2" to="-273028084#2" type="passenger"/>
    <trip id="271" depart="725.58" from="-273028084#2" to="-464461057#0" type="passenger"/>
    <trip id="272" depart="728.26" from="464461053#2" to="781985790#4" type="passenger"/>
    <trip id="273" depart="730.94" from="198691082#1" to="347237859#3" type="passenger"/>
    <trip id="274" depart="733.61" from="464461057#3" to="775222468#0" type="passenger"/>
    <trip id="275" depart="736.29" from="1109231376" to="-198691091" type="passenger"/>
    <trip id="276" depart="738.97" from="-464461053#2" to="-781985790#0" type="passenger"/>
    <trip id="277" depart="741.65" from="277257944#1" to="198691092#3" type="passenger"/>
    <trip id="278" depart="744.32" from="273028084#2" to="347237859#3" type="passenger"/>
    <trip id="279" depart="747.00" from="-781985790#0" to="198691092#2" type="passenger"/>
    <trip id="280" depart="749.68" from="-775222468#5" to="273028084#6" type="passenger"/>
    <trip id="281" depart="752.36" from="198691082#1" to="-273028084#0" type="passenger"/>
    <trip id="282" depart="755.03" from="-775222468#3" to="783692390" type="passenger"/>
    <trip id="283" depart="757.71" from="781985786#3" to="198691071#0" type="passenger"/>
    <trip id="284" depart="760.39" from="273028084#7" to="-273028084#1" type="passenger"/>
    <trip id="285" depart="763.06" from="-198691063#0" to="198691061#3" type="passenger"/>
    <trip id="286" depart="765.74" from="273028084#4" to="781985784" type="passenger"/>
    <trip id="287" depart="768.42" from="620607766#2" to="-775222468#1" type="passenger"/>
    <trip id="288" depart="771.10" from="781985790#0" to="781985786#5" type="passenger"/>
    <trip id="289" depart="773.77" from="781985786#4" to="270279686#0" type="passenger"/>
    <trip id="290" depart="776.45" from="913570918" to="-198691062#0" type="passenger"/>
    <trip id="291" depart="779.13" from="-781985790#4" to="273028084#2" type="passenger"/>
    <trip id="292" depart="781.81" from="913570918" to="-198691090" type="passenger"/>
    <trip id="293" depart="784.48" from="-775222468#5" to="347237859#2" type="passenger"/>
    <trip id="294" depart="787.16" from="347237859#1" to="-381226323" type="passenger"/>
    <trip id="295" depart="789.84" from="464461057#0" to="-273028084#1" type="passenger"/>
    <trip id="296" depart="792.52" from="347237859#2" to="-198691068" type="passenger"/>
    <trip id="297" depart="795.19" from="218915133#0" to="347237859#0" type="passenger"/>
    <trip id="298" depart="797.87" from="-464461057#1" to="198691065" type="passenger"/>
    <trip id="299" depart="800.55" from="777422408" to="-464461053#1" type="passenger"/>
    <trip id="300" depart="803.23" from="464461057#1" to="-777422408" type="passenger"/>
    <trip id="301" depart="805.90" from="-270279686#1" to="775222468#5" type="passenger"/>
    <trip id="302" depart="808.58" from="781985786#0" to="464461063" type="passenger"/>
    <trip id="303" depart="811.26" from="620607766#3" to="-198691072#0" type="passenger"/>
    <trip id="304" depart="813.94" from="-273028084#1" to="-198691072#0" type="passenger"/>
    <trip id="305" depart="816.61" from="-464461057#1" to="-273028084#6" type="passenger"/>
    <trip id="306" depart="819.29" from="464461057#2" to="-198691072#0" type="passenger"/>
    <trip id="307" depart="821.97" from="198691057#1" to="620607766#2" type="passenger"/>
    <trip id="308" depart="824.65" from="-913570918" to="913570918" type="passenger"/>
    <trip id="309" depart="827.32" from="-273028084#6" to="270279684#1" type="passenger"/>
    <trip id="310" depart="830.00" from="-464461060" to="-775222468#0" type="passenger"/>
    <trip id="311" depart="832.68" from="620607766#1" to="781985786#4" type="passenger"/>
    <trip id="312" depart="835.36" from="464461063" to="-464461053#2" type="passenger"/>
    <trip id="313" depart="838.03" from="-775222468#5" to="-464461053#0" type="passenger"/>
    <trip id="314" depart="840.71" from="218915133#0" to="198691071#1" type="passenger"/>
    <trip id="315" depart="843.39" from="-775222468#4" to="464461063" type="passenger"/>
    <trip id="316" depart="846.06" from="277257944#1" to="620607766#0" type="passenger"/>
    <trip id="317" depart="848.74" from="198691082#0" to="-775222468#3" type="passenger"/>
    <trip id="318" depart="851.42" from="-273028084#1" to="-198691091" type="passenger"/>
    <trip id="319" depart="854.10" from="270279684#1" to="273028084#4" type="passenger"/>
    <trip id="320" depart="856.77" from="270279684#1" to="-775222468#1" type="passenger"/>
    <trip id="321" depart="859.45" from="464461057#0" to="775222468#1" type="passenger"/>
    <trip id="322" depart="862.13" from="775222468#1" to="-273028084#1" type="passenger"/>
    <trip id="323" depart="864.81" from="-273028084#5" to="-775222468#3" type="passenger"/>
    <trip id="324" depart="867.48" from="781985786#4" to="-273028084#5" type="passenger"/>