<?xml version='1.0' encoding='utf-8'?>
<routes>
  <vType id="adult" vClass="pedestrian" minGap="0.25" width="0.5" length="0.25" maxSpeed="1.5" speedDev="0.1" />
  <vType id="elderly" vClass="pedestrian" minGap="0.25" width="0.5" length="0.25" maxSpeed="1.13" speedDev="0.15" color="255,0,0" />
  <person id="ped_0" depart="1.06" type="adult">
    <walk from="-315658896#1" to="315658896#1" />
  </person>
  <person id="ped_1" depart="3.82" type="adult">
    <walk from="-315658896#1" to="315658896#1" />
  </person>
  <person id="ped_2" depart="12.44" type="elderly">
    <walk from="-315658896#1" to="315658896#1" />
  </person>
  <person id="ped_3" depart="14.22" type="elderly">
    <walk from="-315658896#1" to="315658896#1" />
  </person>
  <person id="ped_4" depart="14.65" type="elderly">
    <walk from="-315658896#1" to="315658896#1" />
  </person>
  <person id="ped_5" depart="17.57" type="adult">
    <walk from="-315658896#1" to="315658896#1" />
  </person>
  <person id="ped_6" depart="18.33" type="adult">
    <walk from="-315658896#1" to="315658896#1" />
  </person>
  <person id="ped_7" depart="19.56" type="elderly">
    <walk from="-315658896#1" to="315658896#1" />
  </person>
  <person id="ped_8" depart="35.32" type="adult">
    <walk from="-315658896#1" to="315658896#1" />
  </person>
  <person id="ped_9" depart="38.73" type="adult">
    <walk from="-315658896#1" to="315658896#1" />
  </person>
  <person id="ped_10" depart="47.60" type="adult">
    <walk from="-315658896#1" to="315658896#1" />
  </person>
  <person id="ped_11" depart="49.05" type="elderly">
    <walk from="-315658896#1" to="315658896#1" />
  </person>
  <person id="ped_12" depart="56.34" type="elderly">
    <walk from="-315658896#1" to="315658896#1" />
  </person>
  <person id="ped_13" depart="60.31" type="adult">
    <walk from="-315658896#1" to="315658896#1" />
  </person>
  <person id="ped_14" depart="65.80" type="elderly">
    <walk from="-315658896#1" to="315658896#1" />
  </person>
  <person id="ped_15" depart="67.68" type="adult">
    <walk from="-315658896#1" to="315658896#1" />
  </person>
  <person id="ped_16" depart="72.86" type="adult">
    <walk from="-315658896#1" to="315658896#1" />
  </person>
  <person id="ped_17" depart="77.26" type="adult">
    <walk from="-315658896#1" to="315658896#1" />
  </person>
  <person id="ped_18" depart="80.11" type="adult">
    <walk from="-315658896#1" to="315658896#1" />
  </person>
  <person id="ped_19" depart="83.32" type="adult">
    <walk from="-315658896#1" to="315658896#1" />
  </person>
  <person id="ped_20" depart="87.79" type="elderly">
    <walk from="-315658896#1" to="315658896#1" />
  </person>
  <person id="ped_21" depart="91.19" type="adult">
    <walk from="-315658896#1" to="315658896#1" />
  </person>
  <person id="ped_22" depart="93.04" type="adult">
    <walk from="-315658896#1" to="315658896#1" />
  </person>
  <person id="ped_23" depart="103.42" type="adult">
    <walk from="-315658896#1" to="315658896#1" />
  </person>
  <person id="ped_24" depart="104.35" type="adult">
    <walk from="-315658896#1" to="315658896#1" />
  </person>
  <person id="ped_25" depart="110.59" type="adult">
    <walk from="-315658896#1" to="315658896#1" />
  </person>
  <person id="ped_26" depart="116.19" type="adult">
    <walk from="-315658896#1" to="315658896#1" />
  </person>
  <person id="ped_27" depart="119.56" type="elderly">
    <walk from="-315658896#1" to="315658896#1" />
  </person>
  <person id="ped_28" depart="124.73" type="adult">
    <walk from="-315658896#1" to="315658896#1" />
  </person>
  <person id="ped_29" depart="124.92" type="elderly">
    <walk from="-315658896#1" to="315658896#1" />
  </person>
  <person id="ped_30" depart="126.94" type="adult">
    <walk from="-315658896#1" to="315658896#1" />
  </person>
  <person id="ped_31" depart="129.37" type="adult">
    <walk from="-315658896#1" to="315658896#1" />
  </person>
  <person id="ped_32" depart="132.71" type="adult">
    <walk from="-315658896#1" to="315658896#1" />
  </person>
  <person id="ped_33" depart="133.37" type="elderly">
    <walk from="-315658896#1" to="315658896#1" />
  </person>
  <person id="ped_34" depart="134.73" type="adult">
    <walk from="-315658896#1" to="315658896#1" />
  </person>
  <person id="ped_35" depart="138.51" type="adult">
    <walk from="-315658896#1" to="315658896#1" />
  </person>
  <person id="ped_36" depart="146.57" type="adult">
    <walk from="-315658896#1" to="315658896#1" />
  </person>
  <person id="ped_37" depart="149.03" type="elderly">
    <walk from="-315658896#1" to="315658896#1" />
  </person>
  <person id="ped_38" depart="149.79" type="elderly">
    <walk from="-315658896#1" to="315658896#1" />
  </person>
  <person id="ped_39" depart="158.57" type="adult">
    <walk from="-315658896#1" to="315658896#1" />
  </person>
  <person id="ped_40" depart="163.63" type="adult">
    <walk from="-315658896#1" to="315658896#1" />
  </person>
  <person id="ped_41" depart="164.32" type="elderly">
    <walk from="-315658896#1" to="315658896#1" />
  </person>
  <person id="ped_42" depart="165.49" type="adult">
    <walk from="-315658896#1" to="315658896#1" />
  </person>
  <person id="ped_43" depart="167.68" type="adult">
    <walk from="-315658896#1" to="315658896#1" />
  </person>
  <person id="ped_44" depart="169.90" type="adult">
    <walk from="-315658896#1" to="315658896#1" />
  </person>
  <person id="ped_45" depart="171.68" type="adult">
    <walk from="-315658896#1" to="315658896#1" />
  </person>
  <person id="ped_46" depart="172.73" type="adult">
    <walk from="-315658896#1" to="315658896#1" />
  </person>
  <person id="ped_47" depart="176.23" type="adult">
    <walk from="-315658896#1" to="315658896#1" />
  </person>
  <person id="ped_48" depart="186.16" type="adult">
    <walk from="-315658896#1" to="315658896#1" />
  </person>
  <person id="ped_49" depart="187.82" type="adult">
    <walk from="-315658896#1" to="315658896#1" />
  </person>
  <person id="ped_50" depart="189.39" type="adult">
    <walk from="-315658896#1" to="315658896#1" />
  </person>
  <person id="ped_51" depart="189.92" type="elderly">
    <walk from="-315658896#1" to="315658896#1" />
  </person>
  <person id="ped_52" depart="206.48" type="adult">
    <walk from="-315658896#1" to="315658896#1" />
  </person>
  <person id="ped_53" depart="216.92" type="adult">
    <walk from="-315658896#1" to="315658896#1" />
  </person>
  <person id="ped_54" depart="218.75" type="adult">
    <walk from="-315658896#1" to="315658896#1" />
  </person>
  <person id="ped_55" depart="220.27" type="adult">
    <walk from="-315658896#1" to="315658896#1" />
  </person>
  <person id="ped_56" depart="223.45" type="adult">
    <walk from="-315658896#1" to="315658896#1" />
  </person>
  <person id="ped_57" depart="240.45" type="adult">
    <walk from="-315658896#1" to="315658896#1" />
  </person>
  <person id="ped_58" depart="243.32" type="adult">
    <walk from="-315658896#1" to="315658896#1" />
  </person>
  <person id="ped_59" depart="250.75" type="elderly">
    <walk from="-315658896#1" to="315658896#1" />
  </person>
  <person id="ped_60" depart="255.51" type="adult">
    <walk from="-315658896#1" to="315658896#1" />
  </person>
  <person id="ped_61" depart="255.71" type="adult">
    <walk from="-315658896#1" to="315658896#1" />
  </person>
  <person id="ped_62" depart="259.12" type="elderly">
    <walk from="-315658896#1" to="315658896#1" />
  </person>
  <person id="ped_63" depart="259.70" type="elderly">
    <walk from="-315658896#1" to="315658896#1" />
  </person>
  <person id="ped_64" depart="264.02" type="adult">
    <walk from="-315658896#1" to="315658896#1" />
  </person>
  <person id="ped_65" depart="265.44" type="elderly">
    <walk from="-315658896#1" to="315658896#1" />
  </person>
  <person id="ped_66" depart="273.79" type="elderly">
    <walk from="-315658896#1" to="315658896#1" />
  </person>
  <person id="ped_67" depart="290.95" type="adult">
    <walk from="-315658896#1" to="315658896#1" />
  </person>
  <person id="ped_68" depart="293.56" type="adult">
    <walk from="-315658896#1" to="315658896#1" />
  </person>
  <person id="ped_69" depart="297.71" type="adult">
    <walk from="-315658896#1" to="315658896#1" />
  </person>
  <person id="ped_70" depart="298.70" type="adult">
    <walk from="-315658896#1" to="315658896#1" />
  </person>
  <person id="ped_71" depart="308.33" type="adult">
    <walk from="-315658896#1" to="315658896#1" />
  </person>
  <person id="ped_72" depart="314.18" type="adult">
    <walk from="-315658896#1" to="315658896#1" />
  </person>
  <person id="ped_73" depart="315.46" type="elderly">
    <walk from="-315658896#1" to="315658896#1" />
  </person>
  <person id="ped_74" depart="315.90" type="elderly">
    <walk from="-315658896#1" to="315658896#1" />
  </person>
  <person id="ped_75" depart="321.75" type="adult">
    <walk from="-315658896#1" to="315658896#1" />
  </person>
  <person id="ped_76" depart="324.40" type="adult">
    <walk from="-315658896#1" to="315658896#1" />
  </person>
  <person id="ped_77" depart="328.89" type="adult">
    <walk from="-315658896#1" to="315658896#1" />
  </person>
  <person id="ped_78" depart="329.68" type="adult">
    <walk from="-315658896#1" to="315658896#1" />
  </person>
  <person id="ped_79" depart="333.05" type="adult">
    <walk from="-315658896#1" to="315658896#1" />
  </person>
  <person id="ped_80" depart="337.49" type="adult">
    <walk from="-315658896#1" to="315658896#1" />
  </person>
  <person id="ped_81" depart="352.90" type="adult">
    <walk from="-315658896#1" to="315658896#1" />
  </person>
  <person id="ped_82" depart="354.97" type="elderly">
    <walk from="-315658896#1" to="315658896#1" />
  </person>
  <person id="ped_83" depart="355.13" type="adult">
    <walk from="-315658896#1" to="315658896#1" />
  </person>
  <person id="ped_84" depart="357.69" type="adult">
    <walk from="-315658896#1" to="315658896#1" />
  </person>
  <person id="ped_85" depart="373.30" type="adult">
    <walk from="-315658896#1" to="315658896#1" />
  </person>
  <person id="ped_86" depart="381.61" type="adult">
    <walk from="-315658896#1" to="315658896#1" />
  </person>
  <person id="ped_87" depart="383.45" type="adult">
    <walk from="-315658896#1" to="315658896#1" />
  </person>
  <person id="ped_88" depart="385.12" type="adult">
    <walk from="-315658896#1" to="315658896#1" />
  </person>
  <person id="ped_89" depart="388.95" type="adult">
    <walk from="-315658896#1" to="315658896#1" />
  </person>
  <person id="ped_90" depart="396.06" type="adult">
    <walk from="-315658896#1" to="315658896#1" />
  </person>
  <person id="ped_91" depart="398.66" type="adult">
    <walk from="-315658896#1" to="315658896#1" />
  </person>
  <person id="ped_92" depart="400.56" type="adult">
    <walk from="-315658896#1" to="315658896#1" />
  </person>
  <person id="ped_93" depart="415.07" type="elderly">
    <walk from="-315658896#1" to="315658896#1" />
  </person>
  <person id="ped_94" depart="416.81" type="elderly">
    <walk from="-315658896#1" to="315658896#1" />
  </person>
  <person id="ped_95" depart="421.04" type="elderly">
    <walk from="-315658896#1" to="315658896#1" />
  </person>
  <person id="ped_96" depart="434.52" type="adult">
    <walk from="-315658896#1" to="315658896#1" />
  </person>
  <person id="ped_97" depart="435.32" type="adult">
    <walk from="-315658896#1" to="315658896#1" />
  </person>
  <person id="ped_98" depart="439.32" type="elderly">
    <walk from="-315658896#1" to="315658896#1" />
  </person>
  <person id="ped_99" depart="443.16" type="adult">
    <walk from="-315658896#1" to="315658896#1" />
  </person>
  <person id="ped_100" depart="445.24" type="adult">
    <walk from="-315658896#1" to="315658896#1" />
  </person>
  <person id="ped_101" depart="445.27" type="elderly">
    <walk from="-315658896#1" to="315658896#1" />
  </person>
  <person id="ped_102" depart="450.23" type="elderly">
    <walk from="-315658896#1" to="315658896#1" />
  </person>
  <person id="ped_103" depart="455.84" type="adult">
    <walk from="-315658896#1" to="315658896#1" />
  </person>
  <person id="ped_104" depart="455.95" type="adult">
    <walk from="-315658896#1" to="315658896#1" />
  </person>
  <person id="ped_105" depart="460.76" type="adult">
    <walk from="-315658896#1" to="315658896#1" />
  </person>
  <person id="ped_106" depart="461.20" type="elderly">
    <walk from="-315658896#1" to="315658896#1" />
  </person>
  <person id="ped_107" depart="461.98" type="adult">
    <walk from="-315658896#1" to="315658896#1" />
  </person>
  <person id="ped_108" depart="462.15" type="adult">
    <walk from="-315658896#1" to="315658896#1" />
  </person>
  <person id="ped_109" depart="465.46" type="elderly">
    <walk from="-315658896#1" to="315658896#1" />
  </person>
  <person id="ped_110" depart="466.46" type="adult">
    <walk from="-315658896#1" to="315658896#1" />
  </person>
  <person id="ped_111" depart="467.70" type="adult">
    <walk from="-315658896#1" to="315658896#1" />
  </person>
  <person id="ped_112" depart="468.03" type="adult">
    <walk from="-315658896#1" to="315658896#1" />
  </person>
  <person id="ped_113" depart="471.31" type="adult">
    <walk from="-315658896#1" to="315658896#1" />
  </person>
  <person id="ped_114" depart="482.75" type="elderly">
    <walk from="-315658896#1" to="315658896#1" />
  </person>
  <person id="ped_115" depart="483.87" type="adult">
    <walk from="-315658896#1" to="315658896#1" />
  </person>
  <person id="ped_116" depart="485.95" type="elderly">
    <walk from="-315658896#1" to="315658896#1" />
  </person>
  <person id="ped_117" depart="487.17" type="elderly">
    <walk from="-315658896#1" to="315658896#1" />
  </person>
  <person id="ped_118" depart="493.42" type="adult">
    <walk from="-315658896#1" to="315658896#1" />
  </person>
  <person id="ped_119" depart="500.60" type="adult">
    <walk from="-315658896#1" to="315658896#1" />
  </person>
  <person id="ped_120" depart="506.30" type="adult">
    <walk from="-315658896#1" to="315658896#1" />
  </person>
  <person id="ped_121" depart="508.74" type="adult">
    <walk from="-315658896#1" to="315658896#1" />
  </person>
  <person id="ped_122" depart="513.09" type="elderly">
    <walk from="-315658896#1" to="315658896#1" />
  </person>
  <person id="ped_123" depart="519.67" type="adult">
    <walk from="-315658896#1" to="315658896#1" />
  </person>
  <person id="ped_124" depart="522.61" type="adult">
    <walk from="-315658896#1" to="315658896#1" />
  </person>
  <person id="ped_125" depart="523.07" type="elderly">
    <walk from="-315658896#1" to="315658896#1" />
  </person>
  <person id="ped_126" depart="525.09" type="adult">
    <walk from="-315658896#1" to="315658896#1" />
  </person>
  <person id="ped_127" depart="531.53" type="adult">
    <walk from="-315658896#1" to="315658896#1" />
  </person>
  <person id="ped_128" depart="532.52" type="adult">
    <walk from="-315658896#1" to="315658896#1" />
  </person>
  <person id="ped_129" depart="537.10" type="adult">
    <walk from="-315658896#1" to="315658896#1" />
  </person>
  <person id="ped_130" depart="547.25" type="elderly">
    <walk from="-315658896#1" to="315658896#1" />
  </person>
  <person id="ped_131" depart="547.68" type="adult">
    <walk from="-315658896#1" to="315658896#1" />
  </person>
  <person id="ped_132" depart="552.81" type="adult">
    <walk from="-315658896#1" to="315658896#1" />
  </person>
  <person id="ped_133" depart="555.31" type="elderly">
    <walk from="-315658896#1" to="315658896#1" />
  </person>
  <person id="ped_134" depart="557.16" type="adult">
    <walk from="-315658896#1" to="315658896#1" />
  </person>
  <person id="ped_135" depart="557.47" type="adult">
    <walk from="-315658896#1" to="315658896#1" />
  </person>
  <person id="ped_136" depart="563.08" type="elderly">
    <walk from="-315658896#1" to="315658896#1" />
  </person>
  <person id="ped_137" depart="564.59" type="elderly">
    <walk from="-315658896#1" to="315658896#1" />
  </person>
  <person id="ped_138" depart="567.46" type="adult">
    <walk from="-315658896#1" to="315658896#1" />
  </person>
  <person id="ped_139" depart="570.61" type="elderly">
    <walk from="-315658896#1" to="315658896#1" />
  </person>
  <person id="ped_140" depart="570.62" type="adult">
    <walk from="-315658896#1" to="315658896#1" />
  </person>
  <person id="ped_141" depart="583.87" type="adult">
    <walk from="-315658896#1" to="315658896#1" />
  </person>
  <person id="ped_142" depart="586.55" type="adult">
    <walk from="-315658896#1" to="315658896#1" />
  </person>
  <person id="ped_143" depart="593.83" type="adult">
    <walk from="-315658896#1" to="315658896#1" />
  </person>
  <person id="ped_144" depart="598.19" type="adult">
    <walk from="-315658896#1" to="315658896#1" />
  </person>
  <person id="ped_145" depart="600.75" type="adult">
    <walk from="-315658896#1" to="315658896#1" />
  </person>
  <person id="ped_146" depart="604.98" type="adult">
    <walk from="-315658896#1" to="315658896#1" />
  </person>
  <person id="ped_147" depart="607.43" type="adult">
    <walk from="-315658896#1" to="315658896#1" />
  </person>
  <person id="ped_148" depart="614.61" type="adult">
    <walk from="-315658896#1" to="315658896#1" />
  </person>
  <person id="ped_149" depart="615.66" type="adult">
    <walk from="-315658896#1" to="315658896#1" />
  </person>
  <person id="ped_150" depart="622.78" type="elderly">
    <walk from="-315658896#1" to="315658896#1" />
  </person>
  <person id="ped_151" depart="634.44" type="adult">
    <walk from="-315658896#1" to="315658896#1" />
  </person>
  <person id="ped_152" depart="636.20" type="adult">
    <walk from="-315658896#1" to="315658896#1" />
  </person>
  <person id="ped_153" depart="647.67" type="elderly">
    <walk from="-315658896#1" to="315658896#1" />
  </person>
  <person id="ped_154" depart="648.18" type="adult">
    <walk from="-315658896#1" to="315658896#1" />
  </person>
  <person id="ped_155" depart="649.16" type="elderly">
    <walk from="-315658896#1" to="315658896#1" />
  </person>
  <person id="ped_156" depart="652.09" type="elderly">
    <walk from="-315658896#1" to="315658896#1" />
  </person>
  <person id="ped_157" depart="656.26" type="adult">
    <walk from="-315658896#1" to="315658896#1" />
  </person>
  <person id="ped_158" depart="658.32" type="elderly">
    <walk from="-315658896#1" to="315658896#1" />
  </person>
  <person id="ped_159" depart="664.49" type="elderly">
    <walk from="-315658896#1" to="315658896#1" />
  </person>
  <person id="ped_160" depart="665.75" type="adult">
    <walk from="-315658896#1" to="315658896#1" />
  </person>
  <person id="ped_161" depart="669.79" type="elderly">
    <walk from="-315658896#1" to="315658896#1" />
  </person>
  <person id="ped_162" depart="670.12" type="adult">
    <walk from="-315658896#1" to="315658896#1" />
  </person>
  <person id="ped_163" depart="672.67" type="adult">
    <walk from="-315658896#1" to="315658896#1" />
  </person>
  <person id="ped_164" depart="673.92" type="adult">
    <walk from="-315658896#1" to="315658896#1" />
  </person>
  <person id="ped_165" depart="680.87" type="adult">
    <walk from="-315658896#1" to="315658896#1" />
  </person>
  <person id="ped_166" depart="682.88" type="elderly">
    <walk from="-315658896#1" to="315658896#1" />
  </person>
  <person id="ped_167" depart="683.56" type="elderly">
    <walk from="-315658896#1" to="315658896#1" />
  </person>
  <person id="ped_168" depart="691.31" type="adult">
    <walk from="-315658896#1" to="315658896#1" />
  </person>
  <person id="ped_169" depart="691.45" type="adult">
    <walk from="-315658896#1" to="315658896#1" />
  </person>
  <person id="ped_170" depart="691.47" type="adult">
    <walk from="-315658896#1" to="315658896#1" />
  </person>
  <person id="ped_171" depart="698.73" type="adult">
    <walk from="-315658896#1" to="315658896#1" />
  </person>
  <person id="ped_172" depart="709.87" type="adult">
    <walk from="-315658896#1" to="315658896#1" />
  </person>
  <person id="ped_173" depart="725.38" type="adult">
    <walk from="-315658896#1" to="315658896#1" />
  </person>
  <person id="ped_174" depart="730.63" type="adult">
    <walk from="-315658896#1" to="315658896#1" />
  </person>
  <person id="ped_175" depart="736.94" type="adult">
    <walk from="-315658896#1" to="315658896#1" />
  </person>
  <person id="ped_176" depart="742.54" type="elderly">
    <walk from="-315658896#1" to="315658896#1" />
  </person>
  <person id="ped_177" depart="744.41" type="adult">
    <walk from="-315658896#1" to="315658896#1" />
  </person>
  <person id="ped_178" depart="745.20" type="adult">
    <walk from="-315658896#1" to="315658896#1" />
  </person>
  <person id="ped_179" depart="745.84" type="adult">
    <walk from="-315658896#1" to="315658896#1" />
  </person>
  <person id="ped_180" depart="755.70" type="adult">
    <walk from="-315658896#1" to="315658896#1" />
  </person>
  <person id="ped_181" depart="759.19" type="adult">
    <walk from="-315658896#1" to="315658896#1" />
  </person>
  <person id="ped_182" depart="765.54" type="adult">
    <walk from="-315658896#1" to="315658896#1" />
  </person>
  <person id="ped_183" depart="768.94" type="adult">
    <walk from="-315658896#1" to="315658896#1" />
  </person>
  <person id="ped_184" depart="770.86" type="elderly">
    <walk from="-315658896#1" to="315658896#1" />
  </person>
  <person id="ped_185" depart="772.06" type="adult">
    <walk from="-315658896#1" to="315658896#1" />
  </person>
  <person id="ped_186" depart="775.27" type="adult">
    <walk from="-315658896#1" to="315658896#1" />
  </person>
  <person id="ped_187" depart="775.41" type="adult">
    <walk from="-315658896#1" to="315658896#1" />
  </person>
  <person id="ped_188" depart="778.50" type="adult">
    <walk from="-315658896#1" to="315658896#1" />
  </person>
  <person id="ped_189" depart="781.33" type="elderly">
    <walk from="-315658896#1" to="315658896#1" />
  </person>
  <person id="ped_190" depart="801.01" type="elderly">
    <walk from="-315658896#1" to="315658896#1" />
  </person>
  <person id="ped_191" depart="809.13" type="elderly">
    <walk from="-315658896#1" to="315658896#1" />
  </person>
  <person id="ped_192" depart="817.95" type="adult">
    <walk from="-315658896#1" to="315658896#1" />
  </person>
  <person id="ped_193" depart="818.89" type="adult">
    <walk from="-315658896#1" to="315658896#1" />
  </person>
  <person id="ped_194" depart="821.20" type="adult">
    <walk from="-315658896#1" to="315658896#1" />
  </person>
  <person id="ped_195" depart="821.77" type="adult">
    <walk from="-315658896#1" to="315658896#1" />
  </person>
  <person id="ped_196" depart="822.43" type="adult">
    <walk from="-315658896#1" to="315658896#1" />
  </person>
  <person id="ped_197" depart="832.30" type="elderly">
    <walk from="-315658896#1" to="315658896#1" />
  </person>
  <person id="ped_198" depart="834.41" type="adult">
    <walk from="-315658896#1" to="315658896#1" />
  </person>
  <person id="ped_199" depart="837.68" type="elderly">
    <walk from="-315658896#1" to="315658896#1" />
  </person>
  <person id="ped_200" depart="841.37" type="adult">
    <walk from="-315658896#1" to="315658896#1" />
  </person>
  <person id="ped_201" depart="843.35" type="elderly">
    <walk from="-315658896#1" to="315658896#1" />
  </person>
  <person id="ped_202" depart="847.00" type="adult">
    <walk from="-315658896#1" to="315658896#1" />
  </person>
  <person id="ped_203" depart="866.77" type="elderly">
    <walk from="-315658896#1" to="315658896#1" />
  </person>
  <person id="ped_204" depart="867.55" type="adult">
    <walk from="-315658896#1" to="315658896#1" />
  </person>
  <person id="ped_205" depart="872.35" type="elderly">
    <walk from="-315658896#1" to="315658896#1" />
  </person>
  <person id="ped_206" depart="876.24" type="adult">
    <walk from="-315658896#1" to="315658896#1" />
  </person>
  <person id="ped_207" depart="883.31" type="elderly">
    <walk from="-315658896#1" to="315658896#1" />
  </person>
  <person id="ped_208" depart="886.55" type="adult">
    <walk from="-315658896#1" to="315658896#1" />
  </person>
  <person id="ped_209" depart="888.80" type="adult">
    <walk from="-315658896#1" to="315658896#1" />
  </person>
  <person id="ped_210" depart="888.90" type="elderly">
    <walk from="-315658896#1" to="315658896#1" />
  </person>
  <person id="ped_211" depart="895.15" type="adult">
    <walk from="-315658896#1" to="315658896#1" />
  </person>
  <person id="ped_212" depart="902.88" type="adult">
    <walk from="-315658896#1" to="315658896#1" />
  </person>
  <person id="ped_213" depart="903.43" type="elderly">
    <walk from="-315658896#1" to="315658896#1" />
  </person>
  <person id="ped_214" depart="904.47" type="adult">
    <walk from="-315658896#1" to="315658896#1" />
  </person>
  <person id="ped_215" depart="911.89" type="adult">
    <walk from="-315658896#1" to="315658896#1" />
  </person>
  <person id="ped_216" depart="913.18" type="adult">
    <walk from="-315658896#1" to="315658896#1" />
  </person>
  <person id="ped_217" depart="913.65" type="elderly">
    <walk from="-315658896#1" to="315658896#1" />
  </person>
  <person id="ped_218" depart="928.18" type="elderly">
    <walk from="-315658896#1" to="315658896#1" />
  </person>
  <person id="ped_219" depart="930.68" type="elderly">
    <walk from="-315658896#1" to="315658896#1" />
  </person>
  <person id="ped_220" depart="931.28" type="adult">
    <walk from="-315658896#1" to="315658896#1" />
  </person>
  <person id="ped_221" depart="932.77" type="elderly">
    <walk from="-315658896#1" to="315658896#1" />
  </person>
  <person id="ped_222" depart="933.42" type="elderly">
    <walk from="-315658896#1" to="315658896#1" />
  </person>
  <person id="ped_223" depart="934.06" type="elderly">
    <walk from="-315658896#1" to="315658896#1" />
  </person>
  <person id="ped_224" depart="951.47" type="elderly">
    <walk from="-315658896#1" to="315658896#1" />
  </person>
  <person id="ped_225" depart="952.72" type="adult">
    <walk from="-315658896#1" to="315658896#1" />
  </person>
  <person id="ped_226" depart="955.87" type="adult">
    <walk from="-315658896#1" to="315658896#1" />
  </person>
  <person id="ped_227" depart="958.46" type="adult">
    <walk from="-315658896#1" to="315658896#1" />
  </person>
  <person id="ped_228" depart="964.33" type="adult">
    <walk from="-315658896#1" to="315658896#1" />
  </person>
  <person id="ped_229" depart="968.06" type="adult">
    <walk from="-315658896#1" to="315658896#1" />
  </person>
  <person id="ped_230" depart="972.65" type="adult">
    <walk from="-315658896#1" to="315658896#1" />
  </person>
  <person id="ped_231" depart="976.99" type="adult">
    <walk from="-315658896#1" to="315658896#1" />
  </person>
  <person id="ped_232" depart="980.82" type="adult">
    <walk from="-315658896#1" to="315658896#1" />
  </person>
  <person id="ped_233" depart="981.41" type="elderly">
    <walk from="-315658896#1" to="315658896#1" />
  </person>
  <person id="ped_234" depart="983.35" type="elderly">
    <walk from="-315658896#1" to="315658896#1" />
  </person>
  <person id="ped_235" depart="988.98" type="adult">
    <walk from="-315658896#1" to="315658896#1" />
  </person>
  <person id="ped_236" depart="994.17" type="adult">
    <walk from="-315658896#1" to="315658896#1" />
  </person>
  <person id="ped_237" depart="994.77" type="adult">
    <walk from="-315658896#1" to="315658896#1" />
  </person>
  <person id="ped_238" depart="995.41" type="adult">
    <walk from="-315658896#1" to="315658896#1" />
  </person>
  <person id="ped_239" depart="999.13" type="adult">
    <walk from="-315658896#1" to="315658896#1" />
  </person>
  <person id="ped_240" depart="999.55" type="adult">
    <walk from="-315658896#1" to="315658896#1" />
  </person>
  <person id="ped_241" depart="1000.26" type="adult">
    <walk from="-315658896#1" to="315658896#1" />
  </person>
  <person id="ped_242" depart="1005.13" type="adult">
    <walk from="-315658896#1" to="315658896#1" />
  </person>
  <person id="ped_243" depart="1005.33" type="elderly">
    <walk from="-315658896#1" to="315658896#1" />
  </person>
  <person id="ped_244" depart="1017.56" type="adult">
    <walk from="-315658896#1" to="315658896#1" />
  </person>
  <person id="ped_245" depart="1018.05" type="adult">
    <walk from="-315658896#1" to="315658896#1" />
  </person>
  <person id="ped_246" depart="1018.55" type="adult">
    <walk from="-315658896#1" to="315658896#1" />
  </person>
  <person id="ped_247" depart="1022.96" type="elderly">
    <walk from="-315658896#1" to="315658896#1" />
  </person>
  <person id="ped_248" depart="1024.85" type="adult">
    <walk from="-315658896#1" to="315658896#1" />
  </person>
  <person id="ped_249" depart="1027.90" type="adult">
    <walk from="-315658896#1" to="315658896#1" />
  </person>
  <person id="ped_250" depart="1029.25" type="adult">
    <walk from="-315658896#1" to="315658896#1" />
  </person>
  <person id="ped_251" depart="1039.00" type="adult">
    <walk from="-315658896#1" to="315658896#1" />
  </person>
  <person id="ped_252" depart="1040.36" type="adult">
    <walk from="-315658896#1" to="315658896#1" />
  </person>
  <person id="ped_253" depart="1042.95" type="adult">
    <walk from="-315658896#1" to="315658896#1" />
  </person>
  <person id="ped_254" depart="1043.32" type="adult">
    <walk from="-315658896#1" to="315658896#1" />
  </person>
  <person id="ped_255" depart="1048.05" type="adult">
    <walk from="-315658896#1" to="315658896#1" />
  </person>
  <person id="ped_256" depart="1048.10" type="elderly">
    <walk from="-315658896#1" to="315658896#1" />
  </person>
  <person id="ped_257" depart="1050.40" type="adult">
    <walk from="-315658896#1" to="315658896#1" />
  </person>