<?xml version="1.0" encoding="UTF-8"?>

<!-- generated on 2026-04-17 02:57:45.913477 by Eclipse SUMO randomTrips.py v1.26.0
<configuration>
    <net-file value="/Users/junlee/Desktop/2026-1/js/result/tradeoff_pet_top12_seed12_60min_20260417_025716/sumo_nets/cw_6122/network.net.xml"/>
    <output-trip-file value="/Users/junlee/Desktop/2026-1/js/result/tradeoff_pet_top12_seed12_60min_20260417_025716/sumo_nets/cw_6122/routes_seed48.trips.xml"/>
    <route-file value="/Users/junlee/Desktop/2026-1/js/result/tradeoff_pet_top12_seed12_60min_20260417_025716/sumo_nets/cw_6122/routes_seed48.rou.xml"/>
    <vehicle-class value="passenger"/>
    <seed value="48"/>
    <period value="2.9202338386706304"/>
</configuration>
-->

<routes xmlns:xsi="http://www.w3.org/2001/XMLSchema-instance" xsi:noNamespaceSchemaLocation="http://sumo.dlr.de/xsd/routes_file.xsd">
    <vType id="passenger" vClass="passenger"/>
    <trip id="0" depart="0.00" from="315658896#3" to="-315658897#0" type="passenger"/>
    <trip id="1" depart="2.92" from="382947009" to="-315658897#4" type="passenger"/>
    <trip id="2" depart="5.84" from="913406478" to="781983103#2" type="passenger"/>
    <trip id="3" depart="8.76" from="-315658896#3" to="315658900#2" type="passenger"/>
    <trip id="4" depart="11.68" from="-315658899#1" to="315658896#4" type="passenger"/>
    <trip id="5" depart="14.60" from="-315658899#1" to="-315658896#1" type="passenger"/>
    <trip id="6" depart="17.52" from="-315658884#1" to="315658896#2" type="passenger"/>
    <trip id="7" depart="20.44" from="-315658897#1" to="-315658897#0" type="passenger"/>
    <trip id="8" depart="23.36" from="-464459667" to="-955312947#0" type="passenger"/>
    <trip id="9" depart="26.28" from="315658899#1" to="788296725" type="passenger"/>
    <trip id="10" depart="29.20" from="-315658896#6" to="315658900#2" type="passenger"/>
    <trip id="11" depart="32.12" from="-315658897#3" to="243542153#1" type="passenger"/>
    <trip id="12" depart="35.04" from="619147739#3" to="581906883" type="passenger"/>
    <trip id="13" depart="37.96" from="-318747848#2" to="-955312948" type="passenger"/>
    <trip id="14" depart="40.88" from="301285279#2" to="-315658896#5" type="passenger"/>
    <trip id="15" depart="43.80" from="-315658896#4" to="-315658897#2" type="passenger"/>
    <trip id="16" depart="46.72" from="-333972428#3" to="301285279#0" type="passenger"/>
    <trip id="17" depart="49.64" from="464459667" to="581906883" type="passenger"/>
    <trip id="18" depart="52.56" from="218915135#1" to="781983104#0" type="passenger"/>
    <trip id="19" depart="55.48" from="-243542153#1" to="315658897#4" type="passenger"/>
    <trip id="20" depart="58.40" from="318747848#1" to="243542153#1" type="passenger"/>
    <trip id="21" depart="61.32" from="218915135#1" to="-318747848#3" type="passenger"/>
    <trip id="22" depart="64.25" from="464459667" to="-315658899#0" type="passenger"/>
    <trip id="23" depart="67.17" from="315658896#5" to="333972428#1" type="passenger"/>
    <trip id="24" depart="70.09" from="-315658897#2" to="-315658897#3" type="passenger"/>
    <trip id="25" depart="73.01" from="-318747848#2" to="777881145" type="passenger"/>
    <trip id="26" depart="75.93" from="315658897#0" to="333972428#2" type="passenger"/>
    <trip id="27" depart="78.85" from="218915135#1-AddedOffRampEdge" to="315658896#5" type="passenger"/>
    <trip id="28" depart="81.77" from="218915135#1-AddedOffRampEdge" to="315658900#3" type="passenger"/>
    <trip id="29" depart="84.69" from="-243542153#1" to="315658900#1" type="passenger"/>
    <trip id="30" depart="87.61" from="619147739#3" to="315658897#5" type="passenger"/>
    <trip id="31" depart="90.53" from="315658884#1" to="777881147#1" type="passenger"/>
    <trip id="32" depart="93.45" from="-315658896#2" to="301285279#2" type="passenger"/>
    <trip id="33" depart="96.37" from="315658897#1" to="315658896#1" type="passenger"/>
    <trip id="34" depart="99.29" from="-315658899#1" to="581906883" type="passenger"/>
    <trip id="35" depart="102.21" from="781983103#1" to="955312948" type="passenger"/>
    <trip id="36" depart="105.13" from="315658897#3" to="-315658899#1" type="passenger"/>
    <trip id="37" depart="108.05" from="955312947#1" to="243542153#3" type="passenger"/>
    <trip id="38" depart="110.97" from="-333972428#2" to="955312947#0" type="passenger"/>
    <trip id="39" depart="113.89" from="315658900#1" to="-315658896#2" type="passenger"/>
    <trip id="40" depart="116.81" from="-333972428#3" to="464459667" type="passenger"/>
    <trip id="41" depart="119.73" from="315658899#1" to="-315658884#2" type="passenger"/>
    <trip id="42" depart="122.65" from="781983103#2" to="777881147#1" type="passenger"/>
    <trip id="43" depart="125.57" from="78628775#2" to="-315658896#4" type="passenger"/>
    <trip id="44" depart="128.49" from="777881144#0" to="315658897#2" type="passenger"/>
    <trip id="45" depart="131.41" from="913406478" to="581906883" type="passenger"/>
    <trip id="46" depart="134.33" from="-315658884#2" to="315658897#4" type="passenger"/>
    <trip id="47" depart="137.25" from="-315658896#1" to="777881144#1" type="passenger"/>
    <trip id="48" depart="140.17" from="315658897#4" to="777881145" type="passenger"/>
    <trip id="49" depart="143.09" from="-315658896#5" to="777881144#1" type="passenger"/>
    <trip id="50" depart="146.01" from="464459667" to="301285279#2" type="passenger"/>
    <trip id="51" depart="148.93" from="315658900#2" to="315658884#1" type="passenger"/>
    <trip id="52" depart="151.85" from="301285279#1" to="-315658899#0" type="passenger"/>
    <trip id="53" depart="154.77" from="-243542153#2" to="301285279#2" type="passenger"/>
    <trip id="54" depart="157.69" from="-315658899#1" to="-464459667" type="passenger"/>
    <trip id="55" depart="160.61" from="-315658897#5" to="-315658899#0" type="passenger"/>
    <trip id="56" depart="163.53" from="315658896#2" to="781983104#1" type="passenger"/>
    <trip id="57" depart="166.45" from="315658897#4" to="-315658900#1" type="passenger"/>
    <trip id="58" depart="169.37" from="315658900#1" to="315658897#0" type="passenger"/>
    <trip id="59" depart="172.29" from="315658896#1" to="315658897#1" type="passenger"/>
    <trip id="60" depart="175.21" from="-315658896#3" to="-315658900#2" type="passenger"/>
    <trip id="61" depart="178.13" from="-315658884#1" to="464459667" type="passenger"/>
    <trip id="62" depart="181.05" from="-315658899#1" to="-315658896#3" type="passenger"/>
    <trip id="63" depart="183.97" from="218915135#2" to="333972428#1" type="passenger"/>
    <trip id="64" depart="186.89" from="-315658897#2" to="777881145" type="passenger"/>
    <trip id="65" depart="189.82" from="913406478" to="318747848#2" type="passenger"/>
    <trip id="66" depart="192.74" from="-315658884#2" to="382947009" type="passenger"/>
    <trip id="67" depart="195.66" from="781983103#2" to="243542153#3" type="passenger"/>
    <trip id="68" depart="198.58" from="781983104#0" to="-955312947#0" type="passenger"/>
    <trip id="69" depart="201.50" from="-315658884#2" to="777881147#1" type="passenger"/>
    <trip id="70" depart="204.42" from="-315658900#3" to="781983104#0" type="passenger"/>
    <trip id="71" depart="207.34" from="318747848#3" to="243542153#2" type="passenger"/>
    <trip id="72" depart="210.26" from="315658897#2" to="315658896#6" type="passenger"/>
    <trip id="73" depart="213.18" from="315658897#4" to="464459667" type="passenger"/>
    <trip id="74" depart="216.10" from="315658884#1" to="619147739#2" type="passenger"/>
    <trip id="75" depart="219.02" from="788296725" to="379943755#1" type="passenger"/>
    <trip id="76" depart="221.94" from="-315658897#3" to="913406478" type="passenger"/>
    <trip id="77" depart="224.86" from="619147739#3" to="-315658896#1" type="passenger"/>
    <trip id="78" depart="227.78" from="619147739#0" to="315658897#2" type="passenger"/>
    <trip id="79" depart="230.70" from="781983104#0" to="243542153#3" type="passenger"/>
    <trip id="80" depart="233.62" from="318747848#3" to="619147739#3" type="passenger"/>
    <trip id="81" depart="236.54" from="619147739#2" to="-318747848#3" type="passenger"/>
    <trip id="82" depart="239.46" from="-315658884#2" to="243542153#1" type="passenger"/>
    <trip id="83" depart="242.38" from="-333972428#1" to="955312947#1" type="passenger"/>
    <trip id="84" depart="245.30" from="-315658884#1" to="777881147#1" type="passenger"/>
    <trip id="85" depart="248.22" from="-315658897#3" to="777881145" type="passenger"/>
    <trip id="86" depart="251.14" from="78628770#1" to="781983103#1" type="passenger"/>
    <trip id="87" depart="254.06" from="315658900#2" to="315658900#3" type="passenger"/>
    <trip id="88" depart="256.98" from="619147739#1" to="781983104#0" type="passenger"/>
    <trip id="89" depart="259.90" from="-243542153#1" to="333972428#2" type="passenger"/>
    <trip id="90" depart="262.82" from="777881144#0" to="243542153#2" type="passenger"/>
    <trip id="91" depart="265.74" from="315658884#1" to="-318747848#1" type="passenger"/>
    <trip id="92" depart="268.66" from="-333972428#2" to="243542153#2" type="passenger"/>
    <trip id="93" depart="271.58" from="-318747848#3" to="464459667" type="passenger"/>
    <trip id="94" depart="274.50" from="-333972428#2" to="315658884#2" type="passenger"/>
    <trip id="95" depart="277.42" from="218915135#1-AddedOffRampEdge" to="315658897#5" type="passenger"/>
    <trip id="96" depart="280.34" from="315658896#2" to="-243542153#1" type="passenger"/>
    <trip id="97" depart="283.26" from="78628775#0" to="315658897#0" type="passenger"/>
    <trip id="98" depart="286.18" from="315658897#2" to="913406478" type="passenger"/>
    <trip id="99" depart="289.10" from="315658897#4" to="333557072#1" type="passenger"/>
    <trip id="100" depart="292.02" from="315658896#2" to="301285279#2" type="passenger"/>
    <trip id="101" depart="294.94" from="777881144#0" to="318747848#1" type="passenger"/>
    <trip id="102" depart="297.86" from="781983104#0" to="-315658896#3" type="passenger"/>
    <trip id="103" depart="300.78" from="243542153#2" to="-315658897#0" type="passenger"/>
    <trip id="104" depart="303.70" from="619147739#2" to="-315658900#1" type="passenger"/>
    <trip id="105" depart="306.62" from="218915135#0" to="619147739#2" type="passenger"/>
    <trip id="106" depart="309.54" from="315658897#2" to="333557072#2" type="passenger"/>
    <trip id="107" depart="312.47" from="-315658896#1" to="-315658897#4" type="passenger"/>
    <trip id="108" depart="315.39" from="382947009" to="-315658896#3" type="passenger"/>
    <trip id="109" depart="318.31" from="315658897#2" to="777881144#1" type="passenger"/>
    <trip id="110" depart="321.23" from="-315658896#3" to="-315658900#2" type="passenger"/>
    <trip id="111" depart="324.15" from="913406478" to="382947009" type="passenger"/>
    <trip id="112" depart="327.07" from="301285279#0" to="-315658884#2" type="passenger"/>
    <trip id="113" depart="329.99" from="619147739#1" to="315658896#3" type="passenger"/>
    <trip id="114" depart="332.91" from="78628775#2" to="315658896#5" type="passenger"/>
    <trip id="115" depart="335.83" from="781983104#0" to="243542153#2" type="passenger"/>
    <trip id="116" depart="338.75" from="315658897#3" to="921117704" type="passenger"/>
    <trip id="117" depart="341.67" from="-315658897#0" to="379943755#1" type="passenger"/>
    <trip id="118" depart="344.59" from="-315658897#1" to="581906883" type="passenger"/>
    <trip id="119" depart="347.51" from="218915135#2" to="379943755#1" type="passenger"/>
    <trip id="120" depart="350.43" from="315658899#1" to="955312947#0" type="passenger"/>
    <trip id="121" depart="353.35" from="955312948" to="-315658896#5" type="passenger"/>
    <trip id="122" depart="356.27" from="315658899#0" to="315658884#1" type="passenger"/>
    <trip id="123" depart="359.19" from="-315658884#2" to="315658899#0" type="passenger"/>
    <trip id="124" depart="362.11" from="301285279#0" to="781983104#0" type="passenger"/>
    <trip id="125" depart="365.03" from="-315658900#1" to="-333972428#0" type="passenger"/>
    <trip id="126" depart="367.95" from="315658896#3" to="955312947#1" type="passenger"/>
    <trip id="127" depart="370.87" from="-315658896#5" to="301285279#1" type="passenger"/>
    <trip id="128" depart="373.79" from="-243542153#3" to="781983104#0" type="passenger"/>
    <trip id="129" depart="376.71" from="-315658896#4" to="781983104#0" type="passenger"/>
    <trip id="130" depart="379.63" from="315658897#4" to="301285279#1" type="passenger"/>
    <trip id="131" depart="382.55" from="315658884#2" to="-315658900#0" type="passenger"/>
    <trip id="132" depart="385.47" from="955312948" to="-315658897#3" type="passenger"/>
    <trip id="133" depart="388.39" from="78628775#0" to="333972428#2" type="passenger"/>
    <trip id="134" depart="391.31" from="955312947#1" to="788296725" type="passenger"/>
    <trip id="135" depart="394.23" from="218915135#1-AddedOffRampEdge" to="781983103#1" type="passenger"/>
    <trip id="136" depart="397.15" from="78628775#2" to="333972428#3" type="passenger"/>
    <trip id="137" depart="400.07" from="781983104#0" to="333972428#2" type="passenger"/>
    <trip id="138" depart="402.99" from="-315658899#1" to="315658896#1" type="passenger"/>
    <trip id="139" depart="405.91" from="218915135#1" to="-315658897#1" type="passenger"/>
    <trip id="140" depart="408.83" from="619147739#2" to="301285279#0" type="passenger"/>
    <trip id="141" depart="411.75" from="382947009" to="-955312948" type="passenger"/>
    <trip id="142" depart="414.67" from="318747848#2" to="333972428#3" type="passenger"/>
    <trip id="143" depart="417.59" from="315658900#1" to="955312947#1" type="passenger"/>
    <trip id="144" depart="420.51" from="318747848#3" to="315658900#0" type="passenger"/>
    <trip id="145" depart="423.43" from="315658896#4" to="788296724#0" type="passenger"/>
    <trip id="146" depart="426.35" from="-315658896#1" to="955312948" type="passenger"/>
    <trip id="147" depart="429.27" from="315658897#1" to="315658897#4" type="passenger"/>
    <trip id="148" depart="432.19" from="955312947#0" to="315658900#2" type="passenger"/>
    <trip id="149" depart="435.11" from="315658900#2" to="-315658897#0" type="passenger"/>
    <trip id="150" depart="438.04" from="781983103#2" to="-318747848#2" type="passenger"/>
    <trip id="151" depart="440.96" from="-333972428#1" to="-955312947#1" type="passenger"/>
    <trip id="152" depart="443.88" from="315658896#2" to="333972428#2" type="passenger"/>
    <trip id="153" depart="446.80" from="781983103#1" to="315658896#5" type="passenger"/>
    <trip id="154" depart="449.72" from="955312947#0" to="-318747848#3" type="passenger"/>
    <trip id="155" depart="452.64" from="788296725" to="777881144#1" type="passenger"/>
    <trip id="156" depart="455.56" from="955312948" to="333972428#3" type="passenger"/>
    <trip id="157" depart="458.48" from="464459667" to="243542153#1" type="passenger"/>
    <trip id="158" depart="461.40" from="619147739#3" to="315658900#3" type="passenger"/>
    <trip id="159" depart="464.32" from="781983103#1" to="788296725" type="passenger"/>
    <trip id="160" depart="467.24" from="955312947#0" to="315658897#2" type="passenger"/>
    <trip id="161" depart="470.16" from="-315658900#0" to="-955312947#1" type="passenger"/>
    <trip id="162" depart="473.08" from="-333972428#3" to="315658896#5" type="passenger"/>
    <trip id="163" depart="476.00" from="-955312947#1" to="-955312947#1" type="passenger"/>
    <trip id="164" depart="478.92" from="-315658900#1" to="619147739#2" type="passenger"/>
    <trip id="165" depart="481.84" from="-333972428#1" to="-315658900#2" type="passenger"/>
    <trip id="166" depart="484.76" from="781983103#2" to="-315658897#2" type="passenger"/>
    <trip id="167" depart="487.68" from="619147739#2" to="333972428#2" type="passenger"/>
    <trip id="168" depart="490.60" from="-315658896#1" to="-315658884#1" type="passenger"/>
    <trip id="169" depart="493.52" from="315658900#1" to="-318747848#2" type="passenger"/>
    <trip id="170" depart="496.44" from="-315658896#5" to="315658897#5" type="passenger"/>
    <trip id="171" depart="499.36" from="243542153#1" to="-315658896#3" type="passenger"/>
    <trip id="172" depart="502.28" from="-333972428#1" to="955312947#0" type="passenger"/>
    <trip id="173" depart="505.20" from="-315658900#1" to="333557072#2" type="passenger"/>
    <trip id="174" depart="508.12" from="315658899#0" to="301285279#0" type="passenger"/>
    <trip id="175" depart="511.04" from="382947009" to="315658897#3" type="passenger"/>
    <trip id="176" depart="513.96" from="-955312947#1" to="788296725" type="passenger"/>
    <trip id="177" depart="516.88" from="243542153#2" to="777881144#1" type="passenger"/>
    <trip id="178" depart="519.80" from="955312948" to="-318747848#1" type="passenger"/>
    <trip id="179" depart="522.72" from="955312948" to="581906883" type="passenger"/>
    <trip id="180" depart="525.64" from="777881144#1" to="777881145" type="passenger"/>
    <trip id="181" depart="528.56" from="315658884#2" to="619147739#2" type="passenger"/>
    <trip id="182" depart="531.48" from="955312948" to="243542153#2" type="passenger"/>
    <trip id="183" depart="534.40" from="464459667" to="243542153#2" type="passenger"/>
    <trip id="184" depart="537.32" from="301285279#2" to="315658896#1" type="passenger"/>
    <trip id="185" depart="540.24" from="-315658897#1" to="315658896#2" type="passenger"/>
    <trip id="186" depart="543.16" from="315658897#3" to="315658896#2" type="passenger"/>
    <trip id="187" depart="546.08" from="-315658900#0" to="333557072#2" type="passenger"/>
    <trip id="188" depart="549.00" from="-315658896#1" to="382947009" type="passenger"/>
    <trip id="189" depart="551.92" from="619147739#2" to="777881147#1" type="passenger"/>
    <trip id="190" depart="554.84" from="-315658897#3" to="-315658900#1" type="passenger"/>
    <trip id="191" depart="557.76" from="318747848#3" to="781983103#2" type="passenger"/>
    <trip id="192" depart="560.68" from="218915135#0" to="315658896#6" type="passenger"/>
    <trip id="193" depart="563.61" from="-333972428#1" to="315658884#2" type="passenger"/>
    <trip id="194" depart="566.53" from="-318747848#2" to="315658897#2" type="passenger"/>
    <trip id="195" depart="569.45" from="913406478" to="318747848#3" type="passenger"/>
    <trip id="196" depart="572.37" from="619147739#0" to="-315658897#4" type="passenger"/>
    <trip id="197" depart="575.29" from="-464459667" to="-315658897#1" type="passenger"/>
    <trip id="198" depart="578.21" from="-315658900#1" to="315658897#3" type="passenger"/>
    <trip id="199" depart="581.13" from="315658900#0" to="318747848#2" type="passenger"/>
    <trip id="200" depart="584.05" from="301285279#1" to="-315658897#1" type="passenger"/>
    <trip id="201" depart="586.97" from="315658896#4" to="777881145" type="passenger"/>
    <trip id="202" depart="589.89" from="315658897#2" to="315658896#2" type="passenger"/>
    <trip id="203" depart="592.81" from="-315658897#0" to="315658896#2" type="passenger"/>
    <trip id="204" depart="595.73" from="218915135#1-AddedOffRampEdge" to="-333972428#0" type="passenger"/>
    <trip id="205" depart="598.65" from="781983103#1" to="464459667" type="passenger"/>
    <trip id="206" depart="601.57" from="78628775#2" to="243542153#3" type="passenger"/>
    <trip id="207" depart="604.49" from="781983103#2" to="-315658897#3" type="passenger"/>
    <trip id="208" depart="607.41" from="315658896#5" to="-333972428#0" type="passenger"/>
    <trip id="209" depart="610.33" from="-315658900#2" to="-315658896#1" type="passenger"/>
    <trip id="210" depart="613.25" from="955312947#1" to="-315658899#1" type="passenger"/>
    <trip id="211" depart="616.17" from="-581906883" to="619147739#3" type="passenger"/>
    <trip id="212" depart="619.09" from="619147739#0" to="788296724#0" type="passenger"/>
    <trip id="213" depart="622.01" from="781983104#0" to="315658884#1" type="passenger"/>
    <trip id="214" depart="624.93" from="-955312947#1" to="788296725" type="passenger"/>
    <trip id="215" depart="627.85" from="-315658896#2" to="315658896#1" type="passenger"/>
    <trip id="216" depart="630.77" from="-333972428#1" to="301285279#1" type="passenger"/>
    <trip id="217" depart="633.69" from="-333972428#2" to="315658896#4" type="passenger"/>
    <trip id="218" depart="636.61" from="315658884#1" to="315658884#1" type="passenger"/>
    <trip id="219" depart="639.53" from="-333972428#2" to="619147739#2" type="passenger"/>
    <trip id="220" depart="642.45" from="-333972428#3" to="619147739#3" type="passenger"/>
    <trip id="221" depart="645.37" from="382947009" to="781983104#1" type="passenger"/>
    <trip id="222" depart="648.29" from="315658896#2" to="315658896#3" type="passenger"/>
    <trip id="223" depart="651.21" from="-333972428#2" to="243542153#3" type="passenger"/>
    <trip id="224" depart="654.13" from="-315658897#0" to="-315658896#5" type="passenger"/>
    <trip id="225" depart="657.05" from="-315658899#1" to="788296724#0" type="passenger"/>
    <trip id="226" depart="659.97" from="-315658899#0" to="315658897#2" type="passenger"/>
    <trip id="227" depart="662.89" from="619147739#2" to="-315658900#2" type="passenger"/>
    <trip id="228" depart="665.81" from="-315658896#1" to="-315658884#2" type="passenger"/>
    <trip id="229" depart="668.73" from="-315658900#0" to="315658896#5" type="passenger"/>
    <trip id="230" depart="671.65" from="-315658899#0" to="315658900#3" type="passenger"/>
    <trip id="231" depart="674.57" from="-315658900#3" to="315658897#4" type="passenger"/>
    <trip id="232" depart="677.49" from="-315658899#1" to="315658896#2" type="passenger"/>
    <trip id="233" depart="680.41" from="78628775#2" to="315658900#1" type="passenger"/>
    <trip id="234" depart="683.33" from="-301285279#1" to="333557072#1" type="passenger"/>
    <trip id="235" depart="686.25" from="781983103#2" to="315658896#3" type="passenger"/>
    <trip id="236" depart="689.18" from="-333972428#3" to="955312947#1" type="passenger"/>
    <trip id="237" depart="692.10" from="218915135#0" to="781983104#0" type="passenger"/>
    <trip id="238" depart="695.02" from="-315658900#0" to="619147739#2" type="passenger"/>
    <trip id="239" depart="697.94" from="-315658900#2" to="315658897#1" type="passenger"/>
    <trip id="240" depart="700.86" from="315658897#2" to="315658897#5" type="passenger"/>
    <trip id="241" depart="703.78" from="315658899#1" to="315658897#1" type="passenger"/>
    <trip id="242" depart="706.70" from="-315658884#2" to="315658884#1" type="passenger"/>
    <trip id="243" depart="709.62" from="619147739#0" to="777881144#1" type="passenger"/>
    <trip id="244" depart="712.54" from="-333972428#2" to="-315658896#1" type="passenger"/>
    <trip id="245" depart="715.46" from="777881144#0" to="-955312947#0" type="passenger"/>
    <trip id="246" depart="718.38" from="301285279#0" to="-315658899#1" type="passenger"/>
    <trip id="247" depart="721.30" from="315658900#0" to="-315658884#2" type="passenger"/>
    <trip id="248" depart="724.22" from="-315658899#1" to="333557072#2" type="passenger"/>
    <trip id="249" depart="727.14" from="-315658896#2" to="-315658896#5" type="passenger"/>
    <trip id="250" depart="730.06" from="-315658896#2" to="301285279#1" type="passenger"/>
    <trip id="251" depart="732.98" from="-315658896#5" to="243542153#1" type="passenger"/>
    <trip id="252" depart="735.90" from="619147739#0" to="315658884#2" type="passenger"/>
    <trip id="253" depart="738.82" from="218915135#0" to="301285279#0" type="passenger"/>
    <trip id="254" depart="741.74" from="-315658899#0" to="-315658884#1" type="passenger"/>
    <trip id="255" depart="744.66" from="-315658899#1" to="619147739#2" type="passenger"/>
    <trip id="256" depart="747.58" from="-243542153#1" to="-315658896#3" type="passenger"/>
    <trip id="257" depart="750.50" from="-315658900#0" to="315658897#4" type="passenger"/>
    <trip id="258" depart="753.42" from="-955312947#1" to="781983103#2" type="passenger"/>
    <trip id="259" depart="756.34" from="464459667" to="781983104#1" type="passenger"/>
    <trip id="260" depart="759.26" from="78628770#1" to="315658897#2" type="passenger"/>
    <trip id="261" depart="762.18" from="619147739#1" to="-315658897#5" type="passenger"/>
    <trip id="262" depart="765.10" from="-301285279#2" to="781983104#1" type="passenger"/>
    <trip id="263" depart="768.02" from="218915135#1-AddedOffRampEdge" to="315658897#3" type="passenger"/>
    <trip id="264" depart="770.94" from="464459667" to="315658896#6" type="passenger"/>
    <trip id="265" depart="773.86" from="-333972428#3" to="-315658884#1" type="passenger"/>
    <trip id="266" depart="776.78" from="243542153#2" to="-955312947#1" type="passenger"/>
    <trip id="267" depart="779.70" from="-318747848#2" to="315658897#2" type="passenger"/>
    <trip id="268" depart="782.62" from="315658896#2" to="315658897#1" type="passenger"/>
    <trip id="269" depart="785.54" from="619147739#1" to="-315658900#2" type="passenger"/>
    <trip id="270" depart="788.46" from="-955312947#0" to="301285279#0" type="passenger"/>
    <trip id="271" depart="791.38" from="-315658896#5" to="243542153#1" type="passenger"/>
    <trip id="272" depart="794.30" from="315658896#4" to="581906883" type="passenger"/>
    <trip id="273" depart="797.22" from="315658897#2" to="315658897#3" type="passenger"/>
    <trip id="274" depart="800.14" from="-315658900#3" to="318747848#3" type="passenger"/>
    <trip id="275" depart="803.06" from="315658899#1" to="333557072#1" type="passenger"/>
    <trip id="276" depart="805.98" from="315658896#4" to="788296724#0" type="passenger"/>
    <trip id="277" depart="808.90" from="78628775#2" to="-315658899#1" type="passenger"/>
    <trip id="278" depart="811.83" from="619147739#1" to="315658884#2" type="passenger"/>
    <trip id="279" depart="814.75" from="-788296724#0" to="379943755#1" type="passenger"/>
    <trip id="280" depart="817.67" from="913406478" to="781983104#1" type="passenger"/>
    <trip id="281" depart="820.59" from="-955312948" to="-315658896#3" type="passenger"/>
    <trip id="282" depart="823.51" from="955312947#0" to="-315658897#2" type="passenger"/>
    <trip id="283" depart="826.43" from="315658897#0" to="243542153#1" type="passenger"/>
    <trip id="284" depart="829.35" from="-581906883" to="315658897#2" type="passenger"/>
    <trip id="285" depart="832.27" from="777881144#0" to="318747848#3" type="passenger"/>
    <trip id="286" depart="835.19" from="-315658897#1" to="-315658897#4" type="passenger"/>
    <trip id="287" depart="838.11" from="315658899#0" to="315658897#5" type="passenger"/>
    <trip id="288" depart="841.03" from="315658897#4" to="-955312948" type="passenger"/>
    <trip id="289" depart="843.95" from="-318747848#2" to="-315658897#5" type="passenger"/>
    <trip id="290" depart="846.87" from="-315658897#1" to="464459667" type="passenger"/>
    <trip id="291" depart="849.79" from="315658896#4" to="315658897#3" type="passenger"/>
    <trip id="292" depart="852.71" from="-315658899#1" to="777881147#1" type="passenger"/>
    <trip id="293" depart="855.63" from="-243542153#3" to="777881145" type="passenger"/>
    <trip id="294" depart="858.55" from="315658899#0" to="-315658899#0" type="passenger"/>
    <trip id="295" depart="861.47" from="78628770#1" to="315658896#1" type="passenger"/>
    <trip id="296" depart="864.39" from="-243542153#1" to="-464459667" type="passenger"/>
    <trip id="297" depart="867.31" from="315658896#3" to="-955312947#1" type="passenger"/>
    <trip id="298" depart="870.23" from="315658897#4" to="315658899#1" type="passenger"/>
    <trip id="299" depart="873.15" from="955312947#0" to="315658897#5" type="passenger"/>
    <trip id="300" depart="876.07" from="315658884#2" to="301285279#1" type="passenger"/>
    <trip id="301" depart="878.99" from="781983103#1" to="-315658899#0" type="passenger"/>
    <trip id="302" depart="881.91" from="315658897#1" to="788296724#0" type="passenger"/>
    <trip id="303" depart="884.83" from="-315658900#0" to="-318747848#3" type="passenger"/>
    <trip id="304" depart="887.75" from="781983103#2" to="781983104#0" type="passenger"/>
    <trip id="305" depart="890.67" from="-315658884#1" to="-315658896#4" type="passenger"/>
    <trip id="306" depart="893.59" from="-464459667" to="379943755#1" type="passenger"/>
    <trip id="307" depart="896.51" from="-315658900#1" to="619147739#2" type="passenger"/>
    <trip id="308" depart="899.43" from="315658896#4" to="315658896#6" type="passenger"/>
    <trip id="309" depart="902.35" from="781983103#2" to="-318747848#3" type="passenger"/>
    <trip id="310" depart="905.27" from="-243542153#2" to="781983103#1" type="passenger"/>
    <trip id="311" depart="908.19" from="-315658896#1" to="-243542153#2" type="passenger"/>
    <trip id="312" depart="911.11" from="-333972428#1" to="315658897#0" type="passenger"/>
    <trip id="313" depart="914.03" from="318747848#1" to="333557072#1" type="passenger"/>
    <trip id="314" depart="916.95" from="619147739#2" to="-955312948" type="passenger"/>
    <trip id="315" depart="919.87" from="218915135#2" to="318747848#3" type="passenger"/>
    <trip id="316" depart="922.79" from="-243542153#3" to="333557072#2" type="passenger"/>
    <trip id="317" depart="925.71" from="318747848#3" to="301285279#1" type="passenger"/>
    <trip id="318" depart="928.63" from="781983104#0" to="-464459667" type="passenger"/>
    <trip id="319" depart="931.55" from="218915135#1-AddedOffRampEdge" to="315658900#3" type="passenger"/>
    <trip id="320" depart="934.47" from="-581906883" to="777881145" type="passenger"/>
    <trip id="321" depart="937.40" from="315658884#2" to="-315658900#1" type="passenger"/>