<?xml version="1.0" encoding="UTF-8"?>

<!-- generated on 2026-04-17 02:57:48.078644 by Eclipse SUMO randomTrips.py v1.26.0
<configuration>
    <net-file value="/Users/junlee/Desktop/2026-1/js/result/tradeoff_pet_top12_seed12_60min_20260417_025716/sumo_nets/cw_6122/network.net.xml"/>
    <output-trip-file value="/Users/junlee/Desktop/2026-1/js/result/tradeoff_pet_top12_seed12_60min_20260417_025716/sumo_nets/cw_6122/routes_seed51.trips.xml"/>
    <route-file value="/Users/junlee/Desktop/2026-1/js/result/tradeoff_pet_top12_seed12_60min_20260417_025716/sumo_nets/cw_6122/routes_seed51.rou.xml"/>
    <vehicle-class value="passenger"/>
    <seed value="51"/>
    <period value="2.7499221079611043"/>
</configuration>
-->

<routes xmlns:xsi="http://www.w3.org/2001/XMLSchema-instance" xsi:noNamespaceSchemaLocation="http://sumo.dlr.de/xsd/routes_file.xsd">
    <vType id="passenger" vClass="passenger"/>
    <trip id="0" depart="0.00" from="-315658900#1" to="315658896#3" type="passenger"/>
    <trip id="1" depart="2.75" from="-315658897#1" to="777881144#1" type="passenger"/>
    <trip id="2" depart="5.50" from="-315658900#0" to="315658897#1" type="passenger"/>
    <trip id="3" depart="8.25" from="913406478" to="333972428#2" type="passenger"/>
    <trip id="4" depart="11.00" from="315658896#3" to="315658900#0" type="passenger"/>
    <trip id="5" depart="13.75" from="315658897#1" to="-955312948" type="passenger"/>
    <trip id="6" depart="16.50" from="955312948" to="243542153#1" type="passenger"/>
    <trip id="7" depart="19.25" from="955312947#1" to="777881147#3" type="passenger"/>
    <trip id="8" depart="22.00" from="-243542153#3" to="-318747848#3" type="passenger"/>
    <trip id="9" depart="24.75" from="301285279#0" to="619147739#3" type="passenger"/>
    <trip id="10" depart="27.50" from="-315658897#3" to="315658899#1" type="passenger"/>
    <trip id="11" depart="30.25" from="-788296724#0" to="581906883" type="passenger"/>
    <trip id="12" depart="33.00" from="78628775#2" to="382947009" type="passenger"/>
    <trip id="13" depart="35.75" from="-315658897#4" to="382947009" type="passenger"/>
    <trip id="14" depart="38.50" from="218915135#1-AddedOffRampEdge" to="777881147#1" type="passenger"/>
    <trip id="15" depart="41.25" from="955312947#1" to="777881144#1" type="passenger"/>
    <trip id="16" depart="44.00" from="777881144#0" to="777881144#1" type="passenger"/>
    <trip id="17" depart="46.75" from="315658897#2" to="-315658897#5" type="passenger"/>
    <trip id="18" depart="49.50" from="955312947#1" to="315658884#1" type="passenger"/>
    <trip id="19" depart="52.25" from="-243542153#2" to="301285279#0" type="passenger"/>
    <trip id="20" depart="55.00" from="218915135#0" to="-315658899#1" type="passenger"/>
    <trip id="21" depart="57.75" from="913406478" to="-315658896#4" type="passenger"/>
    <trip id="22" depart="60.50" from="78628770#1" to="315658897#0" type="passenger"/>
    <trip id="23" depart="63.25" from="-315658897#3" to="-955312948" type="passenger"/>
    <trip id="24" depart="66.00" from="243542153#1" to="-315658896#5" type="passenger"/>
    <trip id="25" depart="68.75" from="382947009" to="315658900#2" type="passenger"/>
    <trip id="26" depart="71.50" from="955312947#1" to="777881145" type="passenger"/>
    <trip id="27" depart="74.25" from="619147739#1" to="955312948" type="passenger"/>
    <trip id="28" depart="77.00" from="315658896#2" to="315658896#5" type="passenger"/>
    <trip id="29" depart="79.75" from="619147739#3" to="788296724#0" type="passenger"/>
    <trip id="30" depart="82.50" from="777881144#1" to="777881147#1" type="passenger"/>
    <trip id="31" depart="85.25" from="-243542153#3" to="243542153#3" type="passenger"/>
    <trip id="32" depart="88.00" from="-315658896#1" to="315658897#4" type="passenger"/>
    <trip id="33" depart="90.75" from="315658897#0" to="315658897#1" type="passenger"/>
    <trip id="34" depart="93.50" from="781983103#1" to="-315658900#2" type="passenger"/>
    <trip id="35" depart="96.25" from="333972428#0" to="315658897#4" type="passenger"/>
    <trip id="36" depart="99.00" from="-315658899#0" to="955312947#0" type="passenger"/>
    <trip id="37" depart="101.75" from="315658896#2" to="315658897#5" type="passenger"/>
    <trip id="38" depart="104.50" from="955312947#1" to="315658897#1" type="passenger"/>
    <trip id="39" depart="107.25" from="301285279#1" to="-315658897#2" type="passenger"/>
    <trip id="40" depart="110.00" from="315658899#0" to="243542153#3" type="passenger"/>
    <trip id="41" depart="112.75" from="619147739#0" to="-315658896#5" type="passenger"/>
    <trip id="42" depart="115.50" from="243542153#2" to="913406478" type="passenger"/>
    <trip id="43" depart="118.25" from="-243542153#2" to="315658900#3" type="passenger"/>
    <trip id="44" depart="121.00" from="315658900#2" to="333972428#2" type="passenger"/>
    <trip id="45" depart="123.75" from="315658896#4" to="315658896#3" type="passenger"/>
    <trip id="46" depart="126.50" from="333972428#0" to="315658884#2" type="passenger"/>
    <trip id="47" depart="129.25" from="-243542153#2" to="464459667" type="passenger"/>
    <trip id="48" depart="132.00" from="-318747848#2" to="581906883" type="passenger"/>
    <trip id="49" depart="134.75" from="955312947#1" to="581906883" type="passenger"/>
    <trip id="50" depart="137.50" from="-955312948" to="781983103#1" type="passenger"/>
    <trip id="51" depart="140.25" from="315658896#5" to="315658900#3" type="passenger"/>
    <trip id="52" depart="143.00" from="318747848#1" to="315658897#1" type="passenger"/>
    <trip id="53" depart="145.75" from="218915135#0" to="333972428#3" type="passenger"/>
    <trip id="54" depart="148.50" from="-333972428#3" to="315658899#0" type="passenger"/>
    <trip id="55" depart="151.25" from="-243542153#1" to="-315658897#0" type="passenger"/>
    <trip id="56" depart="154.00" from="781983103#2" to="-315658900#1" type="passenger"/>
    <trip id="57" depart="156.75" from="218915135#0" to="-315658884#1" type="passenger"/>
    <trip id="58" depart="159.50" from="-301285279#1" to="-333972428#0" type="passenger"/>
    <trip id="59" depart="162.25" from="-243542153#1" to="913406478" type="passenger"/>
    <trip id="60" depart="165.00" from="-315658884#2" to="315658896#1" type="passenger"/>
    <trip id="61" depart="167.75" from="315658896#2" to="581906883" type="passenger"/>
    <trip id="62" depart="170.50" from="-315658896#6" to="777881144#1" type="passenger"/>
    <trip id="63" depart="173.25" from="78628775#2" to="315658897#4" type="passenger"/>
    <trip id="64" depart="176.00" from="218915135#1-AddedOffRampEdge" to="333972428#2" type="passenger"/>
    <trip id="65" depart="178.74" from="619147739#0" to="-315658896#4" type="passenger"/>
    <trip id="66" depart="181.49" from="315658896#5" to="315658900#2" type="passenger"/>
    <trip id="67" depart="184.24" from="78628775#2" to="315658899#1" type="passenger"/>
    <trip id="68" depart="186.99" from="315658897#4" to="464459667" type="passenger"/>
    <trip id="69" depart="189.74" from="-315658897#1" to="781983103#1" type="passenger"/>
    <trip id="70" depart="192.49" from="315658897#0" to="315658900#1" type="passenger"/>
    <trip id="71" depart="195.24" from="-315658897#1" to="315658896#5" type="passenger"/>
    <trip id="72" depart="197.99" from="218915135#0" to="-315658900#0" type="passenger"/>
    <trip id="73" depart="200.74" from="788296725" to="777881147#1" type="passenger"/>
    <trip id="74" depart="203.49" from="243542153#1" to="-315658896#1" type="passenger"/>
    <trip id="75" depart="206.24" from="955312947#1" to="-315658896#5" type="passenger"/>
    <trip id="76" depart="208.99" from="315658884#1" to="315658897#2" type="passenger"/>
    <trip id="77" depart="211.74" from="315658897#3" to="315658896#4" type="passenger"/>
    <trip id="78" depart="214.49" from="955312947#0" to="777881144#1" type="passenger"/>
    <trip id="79" depart="217.24" from="788296725" to="315658896#1" type="passenger"/>
    <trip id="80" depart="219.99" from="-315658896#1" to="-315658884#2" type="passenger"/>
    <trip id="81" depart="222.74" from="913406478" to="-315658900#0" type="passenger"/>
    <trip id="82" depart="225.49" from="619147739#2" to="-315658899#0" type="passenger"/>
    <trip id="83" depart="228.24" from="-315658899#1" to="-315658897#3" type="passenger"/>
    <trip id="84" depart="230.99" from="619147739#3" to="-315658896#2" type="passenger"/>
    <trip id="85" depart="233.74" from="301285279#0" to="619147739#3" type="passenger"/>
    <trip id="86" depart="236.49" from="315658896#1" to="-243542153#1" type="passenger"/>
    <trip id="87" depart="239.24" from="-243542153#2" to="777881145" type="passenger"/>
    <trip id="88" depart="241.99" from="-333972428#1" to="-315658896#2" type="passenger"/>
    <trip id="89" depart="244.74" from="315658896#1" to="581906883" type="passenger"/>
    <trip id="90" depart="247.49" from="-333972428#1" to="-315658897#1" type="passenger"/>
    <trip id="91" depart="250.24" from="-315658897#4" to="315658884#2" type="passenger"/>
    <trip id="92" depart="252.99" from="619147739#0" to="-315658896#2" type="passenger"/>
    <trip id="93" depart="255.74" from="382947009" to="318747848#2" type="passenger"/>
    <trip id="94" depart="258.49" from="218915135#0" to="318747848#2" type="passenger"/>
    <trip id="95" depart="261.24" from="-315658884#1" to="-315658897#4" type="passenger"/>
    <trip id="96" depart="263.99" from="-243542153#2" to="315658896#1" type="passenger"/>
    <trip id="97" depart="266.74" from="218915135#1-AddedOffRampEdge" to="-788296725" type="passenger"/>
    <trip id="98" depart="269.49" from="-315658897#4" to="788296724#0" type="passenger"/>
    <trip id="99" depart="272.24" from="301285279#1" to="-315658896#4" type="passenger"/>
    <trip id="100" depart="274.99" from="315658897#0" to="382947009" type="passenger"/>
    <trip id="101" depart="277.74" from="301285279#1" to="781983104#1" type="passenger"/>
    <trip id="102" depart="280.49" from="-243542153#3" to="243542153#1" type="passenger"/>
    <trip id="103" depart="283.24" from="315658884#2" to="-315658897#4" type="passenger"/>
    <trip id="104" depart="285.99" from="315658897#3" to="315658896#3" type="passenger"/>
    <trip id="105" depart="288.74" from="382947009" to="-315658896#5" type="passenger"/>
    <trip id="106" depart="291.49" from="-315658897#3" to="333972428#1" type="passenger"/>
    <trip id="107" depart="294.24" from="464459667" to="581906883" type="passenger"/>
    <trip id="108" depart="296.99" from="315658899#1" to="315658884#1" type="passenger"/>
    <trip id="109" depart="299.74" from="464459667" to="788296725" type="passenger"/>
    <trip id="110" depart="302.49" from="-315658899#1" to="788296725" type="passenger"/>
    <trip id="111" depart="305.24" from="619147739#0" to="777881147#1" type="passenger"/>
    <trip id="112" depart="307.99" from="955312948" to="318747848#2" type="passenger"/>
    <trip id="113" depart="310.74" from="-315658897#5" to="301285279#0" type="passenger"/>
    <trip id="114" depart="313.49" from="-581906883" to="333972428#2" type="passenger"/>
    <trip id="115" depart="316.24" from="-243542153#3" to="-315658900#1" type="passenger"/>
    <trip id="116" depart="318.99" from="-315658899#1" to="-315658897#4" type="passenger"/>
    <trip id="117" depart="321.74" from="-315658896#2" to="315658884#2" type="passenger"/>
    <trip id="118" depart="324.49" from="-243542153#1" to="-318747848#2" type="passenger"/>
    <trip id="119" depart="327.24" from="-315658897#0" to="318747848#3" type="passenger"/>
    <trip id="120" depart="329.99" from="777881144#1" to="777881147#1" type="passenger"/>
    <trip id="121" depart="332.74" from="-315658900#0" to="464459667" type="passenger"/>
    <trip id="122" depart="335.49" from="301285279#0" to="315658897#0" type="passenger"/>
    <trip id="123" depart="338.24" from="781983103#2" to="788296724#0" type="passenger"/>
    <trip id="124" depart="340.99" from="-318747848#2" to="333972428#1" type="passenger"/>
    <trip id="125" depart="343.74" from="-243542153#2" to="315658897#1" type="passenger"/>
    <trip id="126" depart="346.49" from="-315658897#2" to="-315658900#0" type="passenger"/>
    <trip id="127" depart="349.24" from="-955312948" to="315658900#2" type="passenger"/>
    <trip id="128" depart="351.99" from="-315658899#1" to="-315658900#1" type="passenger"/>
    <trip id="129" depart="354.74" from="315658896#5" to="-333972428#0" type="passenger"/>
    <trip id="130" depart="357.49" from="315658896#4" to="318747848#2" type="passenger"/>
    <trip id="131" depart="360.24" from="-315658884#1" to="-315658896#4" type="passenger"/>
    <trip id="132" depart="362.99" from="333972428#0" to="955312947#1" type="passenger"/>
    <trip id="133" depart="365.74" from="243542153#1" to="-333972428#0" type="passenger"/>
    <trip id="134" depart="368.49" from="619147739#3" to="781983104#0" type="passenger"/>
    <trip id="135" depart="371.24" from="955312948" to="301285279#2" type="passenger"/>
    <trip id="136" depart="373.99" from="-315658896#6" to="318747848#3" type="passenger"/>
    <trip id="137" depart="376.74" from="315658896#5" to="-318747848#1" type="passenger"/>
    <trip id="138" depart="379.49" from="-243542153#3" to="333972428#3" type="passenger"/>
    <trip id="139" depart="382.24" from="382947009" to="382947009" type="passenger"/>
    <trip id="140" depart="384.99" from="315658896#1" to="777881147#3" type="passenger"/>
    <trip id="141" depart="387.74" from="-315658896#4" to="-315658900#0" type="passenger"/>
    <trip id="142" depart="390.49" from="315658896#1" to="777881147#3" type="passenger"/>
    <trip id="143" depart="393.24" from="78628775#0" to="781983103#2" type="passenger"/>
    <trip id="144" depart="395.99" from="-315658900#2" to="-315658900#2" type="passenger"/>
    <trip id="145" depart="398.74" from="-315658897#3" to="-315658897#2" type="passenger"/>
    <trip id="146" depart="401.49" from="777881144#0" to="315658896#5" type="passenger"/>
    <trip id="147" depart="404.24" from="955312947#0" to="315658900#0" type="passenger"/>
    <trip id="148" depart="406.99" from="382947009" to="788296725" type="passenger"/>
    <trip id="149" depart="409.74" from="315658896#3" to="-315658900#2" type="passenger"/>
    <trip id="150" depart="412.49" from="-955312948" to="301285279#1" type="passenger"/>
    <trip id="151" depart="415.24" from="-315658897#1" to="315658897#1" type="passenger"/>
    <trip id="152" depart="417.99" from="-243542153#3" to="-315658896#3" type="passenger"/>
    <trip id="153" depart="420.74" from="-788296724#0" to="-315658899#1" type="passenger"/>
    <trip id="154" depart="423.49" from="243542153#2" to="921117704" type="passenger"/>
    <trip id="155" depart="426.24" from="-315658900#0" to="-955312947#1" type="passenger"/>
    <trip id="156" depart="428.99" from="315658897#2" to="-315658897#4" type="passenger"/>
    <trip id="157" depart="431.74" from="781983103#2" to="955312947#1" type="passenger"/>
    <trip id="158" depart="434.49" from="619147739#3" to="-243542153#2" type="passenger"/>
    <trip id="159" depart="437.24" from="315658896#4" to="619147739#3" type="passenger"/>
    <trip id="160" depart="439.99" from="78628775#2" to="315658897#5" type="passenger"/>
    <trip id="161" depart="442.74" from="955312947#1" to="-318747848#2" type="passenger"/>
    <trip id="162" depart="445.49" from="955312947#1" to="955312947#1" type="passenger"/>
    <trip id="163" depart="448.24" from="301285279#0" to="301285279#2" type="passenger"/>
    <trip id="164" depart="450.99" from="315658897#0" to="-315658897#4" type="passenger"/>
    <trip id="165" depart="453.74" from="781983103#2" to="777881144#1" type="passenger"/>
    <trip id="166" depart="456.49" from="-243542153#3" to="315658897#2" type="passenger"/>
    <trip id="167" depart="459.24" from="-315658899#1" to="788296725" type="passenger"/>
    <trip id="168" depart="461.99" from="78628775#0" to="315658900#2" type="passenger"/>
    <trip id="169" depart="464.74" from="-318747848#3" to="777881147#1" type="passenger"/>
    <trip id="170" depart="467.49" from="315658900#1" to="-243542153#2" type="passenger"/>
    <trip id="171" depart="470.24" from="788296724#0" to="333972428#3" type="passenger"/>
    <trip id="172" depart="472.99" from="333972428#0" to="-315658896#2" type="passenger"/>
    <trip id="173" depart="475.74" from="-243542153#2" to="-315658896#1" type="passenger"/>
    <trip id="174" depart="478.49" from="-315658896#2" to="315658896#4" type="passenger"/>
    <trip id="175" depart="481.24" from="-315658884#1" to="243542153#1" type="passenger"/>
    <trip id="176" depart="483.99" from="-318747848#2" to="-315658896#2" type="passenger"/>
    <trip id="177" depart="486.74" from="-315658896#1" to="333972428#2" type="passenger"/>
    <trip id="178" depart="489.49" from="-315658884#2" to="315658896#3" type="passenger"/>
    <trip id="179" depart="492.24" from="315658897#3" to="581906883" type="passenger"/>
    <trip id="180" depart="494.99" from="781983103#2" to="-315658896#5" type="passenger"/>
    <trip id="181" depart="497.74" from="-333972428#3" to="-315658897#3" type="passenger"/>
    <trip id="182" depart="500.49" from="-955312947#1" to="315658884#2" type="passenger"/>
    <trip id="183" depart="503.24" from="777881144#0" to="-315658900#1" type="passenger"/>
    <trip id="184" depart="505.99" from="-315658896#2" to="315658899#0" type="passenger"/>
    <trip id="185" depart="508.74" from="781983103#1" to="243542153#2" type="passenger"/>
    <trip id="186" depart="511.49" from="-318747848#3" to="781983104#0" type="passenger"/>
    <trip id="187" depart="514.24" from="-315658896#3" to="315658897#4" type="passenger"/>
    <trip id="188" depart="516.99" from="-955312948" to="315658896#2" type="passenger"/>
    <trip id="189" depart="519.74" from="218915135#0" to="-315658896#5" type="passenger"/>
    <trip id="190" depart="522.49" from="382947009" to="781983104#1" type="passenger"/>
    <trip id="191" depart="525.24" from="-315658896#3" to="315658897#5" type="passenger"/>
    <trip id="192" depart="527.99" from="315658897#0" to="781983104#1" type="passenger"/>
    <trip id="193" depart="530.73" from="218915135#0" to="-315658897#0" type="passenger"/>
    <trip id="194" depart="533.48" from="315658896#5" to="-315658884#1" type="passenger"/>
    <trip id="195" depart="536.23" from="913406478" to="-315658896#2" type="passenger"/>
    <trip id="196" depart="538.98" from="464459667" to="333972428#2" type="passenger"/>
    <trip id="197" depart="541.73" from="78628775#0" to="-315658897#0" type="passenger"/>
    <trip id="198" depart="544.48" from="-243542153#2" to="-315658897#4" type="passenger"/>
    <trip id="199" depart="547.23" from="-315658896#6" to="-315658884#2" type="passenger"/>
    <trip id="200" depart="549.98" from="318747848#2" to="333557072#2" type="passenger"/>
    <trip id="201" depart="552.73" from="-955312947#1" to="777881144#1" type="passenger"/>
    <trip id="202" depart="555.48" from="777881144#1" to="777881147#1" type="passenger"/>
    <trip id="203" depart="558.23" from="-315658899#0" to="-955312948" type="passenger"/>
    <trip id="204" depart="560.98" from="955312947#1" to="315658897#2" type="passenger"/>
    <trip id="205" depart="563.73" from="315658900#1" to="315658897#0" type="passenger"/>
    <trip id="206" depart="566.48" from="-318747848#2" to="-243542153#2" type="passenger"/>
    <trip id="207" depart="569.23" from="-318747848#3" to="243542153#2" type="passenger"/>
    <trip id="208" depart="571.98" from="315658897#2" to="243542153#3" type="passenger"/>
    <trip id="209" depart="574.73" from="318747848#3" to="315658897#5" type="passenger"/>
    <trip id="210" depart="577.48" from="-955312948" to="955312948" type="passenger"/>
    <trip id="211" depart="580.23" from="619147739#0" to="301285279#0" type="passenger"/>
    <trip id="212" depart="582.98" from="955312947#1" to="301285279#0" type="passenger"/>
    <trip id="213" depart="585.73" from="-315658897#5" to="315658896#2" type="passenger"/>
    <trip id="214" depart="588.48" from="315658900#0" to="301285279#1" type="passenger"/>
    <trip id="215" depart="591.23" from="-315658896#2" to="315658896#2" type="passenger"/>
    <trip id="216" depart="593.98" from="318747848#1" to="-318747848#2" type="passenger"/>
    <trip id="217" depart="596.73" from="78628775#0" to="781983104#1" type="passenger"/>
    <trip id="218" depart="599.48" from="-315658900#0" to="315658896#2" type="passenger"/>
    <trip id="219" depart="602.23" from="315658896#5" to="315658884#1" type="passenger"/>
    <trip id="220" depart="604.98" from="-243542153#1" to="-315658897#4" type="passenger"/>
    <trip id="221" depart="607.73" from="78628775#2" to="243542153#2" type="passenger"/>
    <trip id="222" depart="610.48" from="315658884#2" to="788296724#0" type="passenger"/>
    <trip id="223" depart="613.23" from="-315658900#0" to="243542153#2" type="passenger"/>
    <trip id="224" depart="615.98" from="315658899#1" to="-318747848#2" type="passenger"/>
    <trip id="225" depart="618.73" from="218915135#1" to="382947009" type="passenger"/>
    <trip id="226" depart="621.48" from="619147739#2" to="333972428#3" type="passenger"/>
    <trip id="227" depart="624.23" from="619147739#2" to="-243542153#2" type="passenger"/>
    <trip id="228" depart="626.98" from="-315658884#2" to="315658897#5" type="passenger"/>
    <trip id="229" depart="629.73" from="218915135#0" to="315658897#1" type="passenger"/>
    <trip id="230" depart="632.48" from="-581906883" to="-301285279#0" type="passenger"/>
    <trip id="231" depart="635.23" from="315658896#3" to="315658897#3" type="passenger"/>
    <trip id="232" depart="637.98" from="315658896#5" to="-315658897#5" type="passenger"/>
    <trip id="233" depart="640.73" from="315658896#2" to="-315658900#0" type="passenger"/>
    <trip id="234" depart="643.48" from="301285279#0" to="-333972428#0" type="passenger"/>
    <trip id="235" depart="646.23" from="318747848#1" to="379943755#1" type="passenger"/>
    <trip id="236" depart="648.98" from="382947009" to="-315658897#3" type="passenger"/>
    <trip id="237" depart="651.73" from="218915135#0" to="315658897#2" type="passenger"/>
    <trip id="238" depart="654.48" from="955312947#1" to="-318747848#1" type="passenger"/>
    <trip id="239" depart="657.23" from="-318747848#2" to="955312948" type="passenger"/>
    <trip id="240" depart="659.98" from="-315658896#1" to="-318747848#1" type="passenger"/>
    <trip id="241" depart="662.73" from="315658900#2" to="315658884#2" type="passenger"/>
    <trip id="242" depart="665.48" from="619147739#1" to="-315658899#0" type="passenger"/>
    <trip id="243" depart="668.23" from="-315658897#1" to="315658897#2" type="passenger"/>
    <trip id="244" depart="670.98" from="781983103#2" to="777881147#1" type="passenger"/>
    <trip id="245" depart="673.73" from="315658900#2" to="315658897#2" type="passenger"/>
    <trip id="246" depart="676.48" from="-243542153#2" to="-955312947#0" type="passenger"/>
    <trip id="247" depart="679.23" from="464459667" to="464459667" type="passenger"/>
    <trip id="248" depart="681.98" from="-243542153#1" to="301285279#1" type="passenger"/>
    <trip id="249" depart="684.73" from="318747848#1" to="315658897#4" type="passenger"/>
    <trip id="250" depart="687.48" from="78628775#0" to="-315658884#1" type="passenger"/>
    <trip id="251" depart="690.23" from="-315658897#4" to="913406478" type="passenger"/>
    <trip id="252" depart="692.98" from="315658897#0" to="-315658897#0" type="passenger"/>
    <trip id="253" depart="695.73" from="-315658900#1" to="301285279#1" type="passenger"/>
    <trip id="254" depart="698.48" from="-315658896#3" to="-243542153#1" type="passenger"/>
    <trip id="255" depart="701.23" from="-315658900#3" to="315658899#0" type="passenger"/>
    <trip id="256" depart="703.98" from="-315658897#4" to="315658896#2" type="passenger"/>
    <trip id="257" depart="706.73" from="-581906883" to="315658884#2" type="passenger"/>
    <trip id="258" depart="709.48" from="315658897#5" to="788296725" type="passenger"/>
    <trip id="259" depart="712.23" from="315658884#1" to="315658896#6" type="passenger"/>
    <trip id="260" depart="714.98" from="-955312947#0" to="301285279#0" type="passenger"/>
    <trip id="261" depart="717.73" from="301285279#0" to="955312948" type="passenger"/>
    <trip id="262" depart="720.48" from="301285279#1" to="315658900#3" type="passenger"/>
    <trip id="263" depart="723.23" from="464459667" to="-315658896#2" type="passenger"/>
    <trip id="264" depart="725.98" from="-243542153#3" to="243542153#2" type="passenger"/>
    <trip id="265" depart="728.73" from="-315658897#5" to="301285279#1" type="passenger"/>
    <trip id="266" depart="731.48" from="-315658899#1" to="315658897#1" type="passenger"/>
    <trip id="267" depart="734.23" from="218915135#1-AddedOffRampEdge" to="-315658900#1" type="passenger"/>
    <trip id="268" depart="736.98" from="-318747848#2" to="315658896#5" type="passenger"/>
    <trip id="269" depart="739.73" from="-315658900#0" to="-243542153#2" type="passenger"/>
    <trip id="270" depart="742.48" from="78628770#1" to="333972428#3" type="passenger"/>
    <trip id="271" depart="745.23" from="315658896#5" to="-315658900#0" type="passenger"/>
    <trip id="272" depart="747.98" from="-464459667" to="-315658897#1" type="passenger"/>
    <trip id="273" depart="750.73" from="-315658897#4" to="-315658897#5" type="passenger"/>
    <trip id="274" depart="753.48" from="218915135#0" to="315658897#2" type="passenger"/>
    <trip id="275" depart="756.23" from="619147739#3" to="-315658897#2" type="passenger"/>
    <trip id="276" depart="758.98" from="781983104#0" to="-318747848#1" type="passenger"/>
    <trip id="277" depart="761.73" from="301285279#2" to="921117704" type="passenger"/>
    <trip id="278" depart="764.48" from="78628770#1" to="315658884#2" type="passenger"/>
    <trip id="279" depart="767.23" from="315658900#0" to="333972428#3" type="passenger"/>
    <trip id="280" depart="769.98" from="619147739#3" to="-315658884#2" type="passenger"/>
    <trip id="281" depart="772.73" from="-955312948" to="-243542153#2" type="passenger"/>
    <trip id="282" depart="775.48" from="955312947#1" to="-315658896#4" type="passenger"/>
    <trip id="283" depart="778.23" from="619147739#3" to="315658884#1" type="passenger"/>
    <trip id="284" depart="780.98" from="218915135#1-AddedOffRampEdge" to="315658896#6" type="passenger"/>
    <trip id="285" depart="783.73" from="315658899#0" to="-315658897#1" type="passenger"/>
    <trip id="286" depart="786.48" from="788296724#0" to="788296724#0" type="passenger"/>
    <trip id="287" depart="789.23" from="464459667" to="301285279#0" type="passenger"/>
    <trip id="288" depart="791.98" from="-955312947#0" to="315658900#3" type="passenger"/>
    <trip id="289" depart="794.73" from="315658897#5" to="777881147#3" type="passenger"/>
    <trip id="290" depart="797.48" from="-315658897#5" to="913406478" type="passenger"/>
    <trip id="291" depart="800.23" from="619147739#3" to="-243542153#2" type="passenger"/>
    <trip id="292" depart="802.98" from="955312948" to="318747848#2" type="passenger"/>
    <trip id="293" depart="805.73" from="-315658896#2" to="315658884#2" type="passenger"/>
    <trip id="294" depart="808.48" from="-315658897#0" to="382947009" type="passenger"/>
    <trip id="295" depart="811.23" from="788296725" to="315658897#0" type="passenger"/>
    <trip id="296" depart="813.98" from="218915135#1" to="619147739#3" type="passenger"/>
    <trip id="297" depart="816.73" from="318747848#2" to="913406478" type="passenger"/>
    <trip id="298" depart="819.48" from="315658900#0" to="-315658896#5" type="passenger"/>
    <trip id="299" depart="822.23" from="781983103#2" to="-315658897#2" type="passenger"/>
    <trip id="300" depart="824.98" from="-788296724#0" to="-318747848#3" type="passenger"/>
    <trip id="301" depart="827.73" from="-315658897#2" to="301285279#0" type="passenger"/>
    <trip id="302" depart="830.48" from="218915135#1" to="777881145" type="passenger"/>
    <trip id="303" depart="833.23" from="218915135#1-AddedOffRampEdge" to="243542153#1" type="passenger"/>
    <trip id="304" depart="835.98" from="-315658899#1" to="315658897#2" type="passenger"/>
    <trip id="305" depart="838.73" from="619147739#0" to="-318747848#3" type="passenger"/>
    <trip id="306" depart="841.48" from="333972428#0" to="-315658900#2" type="passenger"/>
    <trip id="307" depart="844.23" from="-315658897#3" to="-315658896#1" type="passenger"/>
    <trip id="308" depart="846.98" from="-318747848#2" to="315658884#1" type="passenger"/>
    <trip id="309" depart="849.73" from="315658900#0" to="318747848#3" type="passenger"/>
    <trip id="310" depart="852.48" from="-243542153#1" to="-315658900#0" type="passenger"/>
    <trip id="311" depart="855.23" from="315658899#1" to="788296724#0" type="passenger"/>
    <trip id="312" depart="857.98" from="-315658896#5" to="315658897#2" type="passenger"/>
    <trip id="313" depart="860.73" from="-315658897#0" to="913406478" type="passenger"/>
    <trip id="314" depart="863.48" from="955312947#1" to="379943755#1" type="passenger"/>
    <trip id="315" depart="866.23" from="315658896#4" to="619147739#2" type="passenger"/>
    <trip id="316" depart="868.98" from="78628770#1" to="315658896#4" type="passenger"/>
    <trip id="317" depart="871.73" from="-315658897#1" to="-315658896#2" type="passenger"/>
    <trip id="318" depart="874.48" from="301285279#0" to="-243542153#1" type="passenger"/>
    <trip id="319" depart="877.23" from="382947009" to="-464459667" type="passenger"/>
    <trip id="320" depart="879.98" from="218915135#2" to="955312947#0" type="passenger"/>
    <trip id="321" depart="882.72" from="-955312947#1" to="-318747848#2" type="passenger"/>
    <trip id="322" depart="885.47" from="315658900#1" to="788296725" type="passenger"/>