<?xml version="1.0" encoding="UTF-8"?>

<!-- generated on 2026-04-15T03:03:04.306931+09:00 by Eclipse SUMO netconvert 1.26.0
<netconvertConfiguration xmlns:xsi="http://www.w3.org/2001/XMLSchema-instance" xsi:noNamespaceSchemaLocation="http://sumo.dlr.de/xsd/netconvertConfiguration.xsd">

    <input>
        <osm-files value="/Users/junlee/Desktop/2026-1/js/result/report_top12_seed4_2h/sumo_nets/cw_125895/map.osm"/>
    </input>

    <output>
        <output-file value="/Users/junlee/Desktop/2026-1/js/result/report_top12_seed4_2h/sumo_nets/cw_125895/network.net.xml"/>
    </output>

    <projection>
        <proj.utm value="true"/>
    </projection>

    <processing>
        <geometry.remove value="true"/>
        <roundabouts.guess value="true"/>
    </processing>

    <tls_building>
        <tls.guess value="true"/>
        <tls.guess-signals value="true"/>
    </tls_building>

    <ramp_guessing>
        <ramps.guess value="true"/>
    </ramp_guessing>

    <edge_removal>
        <keep-edges.by-vclass value="passenger,pedestrian"/>
    </edge_removal>

    <junctions>
        <no-turnarounds value="true"/>
        <junctions.join value="true"/>
    </junctions>

    <pedestrian>
        <sidewalks.guess value="true"/>
        <sidewalks.guess.max-speed value="13.89"/>
        <crossings.guess value="true"/>
    </pedestrian>

    <report>
        <verbose value="true"/>
    </report>

</netconvertConfiguration>
-->

<net version="1.20" junctionCornerDetail="5" walkingareas="true" limitTurnSpeed="5.50" xmlns:xsi="http://www.w3.org/2001/XMLSchema-instance" xsi:noNamespaceSchemaLocation="http://sumo.dlr.de/xsd/net_file.xsd">

    <location netOffset="-323703.81,-4157491.39" convBoundary="0.00,0.00,1061.05,1387.72" origBoundary="126.957820,37.539820,127.029336,37.586491" projParameter="+proj=utm +zone=52 +ellps=WGS84 +datum=WGS84 +units=m +no_defs"/>

    <type id="highway.footway" priority="1" numLanes="1" speed="2.78" allow="pedestrian" oneway="1" width="2.00"/>
    <type id="highway.primary" priority="12" numLanes="2" speed="27.78" disallow="tram rail_urban rail rail_electric rail_fast ship container cable_car subway aircraft wheelchair scooter drone" oneway="0"/>
    <type id="highway.primary_link" priority="7" numLanes="1" speed="22.22" disallow="tram rail_urban rail rail_electric rail_fast ship container cable_car subway aircraft wheelchair scooter drone" oneway="0"/>
    <type id="highway.residential" priority="3" numLanes="1" speed="13.89" disallow="tram rail_urban rail rail_electric rail_fast ship container cable_car subway aircraft wheelchair scooter drone" oneway="0"/>
    <type id="highway.secondary" priority="11" numLanes="1" speed="27.78" disallow="tram rail_urban rail rail_electric rail_fast ship container cable_car subway aircraft wheelchair scooter drone" oneway="0"/>
    <type id="highway.service" priority="1" numLanes="1" speed="5.56" allow="pedestrian delivery bicycle" oneway="0"/>
    <type id="highway.unclassified" priority="4" numLanes="1" speed="13.89" disallow="tram rail_urban rail rail_electric rail_fast ship container cable_car subway aircraft wheelchair scooter drone" oneway="0"/>

    <edge id=":1129288447_w0" function="walkingarea">
        <lane id=":1129288447_w0_0" index="0" allow="pedestrian" speed="2.78" length="0.10" width="3.20" shape="965.96,157.45 971.50,160.63"/>
    </edge>
    <edge id=":12857535999_0" function="internal">
        <lane id=":12857535999_0_0" index="0" disallow="tram rail_urban rail rail_electric rail_fast ship container cable_car subway aircraft wheelchair scooter drone" speed="27.78" length="0.29" shape="211.44,20.31 211.16,20.21"/>
    </edge>
    <edge id=":12857535999_1" function="internal">
        <lane id=":12857535999_1_0" index="0" disallow="tram rail_urban rail rail_electric rail_fast ship container cable_car subway aircraft wheelchair scooter drone" speed="27.78" length="0.30" shape="212.28,17.21 212.56,17.31"/>
    </edge>
    <edge id=":12857535999_w0" function="walkingarea">
        <lane id=":12857535999_w0_0" index="0" allow="pedestrian" speed="2.78" length="2.24" width="6.40" shape="210.87,21.81 213.13,15.82 212.84,15.71 210.60,21.71"/>
    </edge>
    <edge id=":1936511298_0" function="internal">
        <lane id=":1936511298_0_0" index="0" disallow="tram rail_urban rail rail_electric rail_fast ship container cable_car subway aircraft wheelchair scooter drone" speed="27.78" length="17.99" shape="700.91,595.15 691.31,610.30"/>
        <lane id=":1936511298_0_1" index="1" disallow="tram rail_urban rail rail_electric rail_fast ship container cable_car subway aircraft wheelchair scooter drone" speed="27.78" length="17.99" shape="698.25,593.37 688.60,608.60"/>
    </edge>
    <edge id=":1936511298_2" function="internal">
        <lane id=":1936511298_2_0" index="0" disallow="pedestrian tram rail_urban rail rail_electric rail_fast ship container cable_car subway aircraft wheelchair scooter drone" speed="14.30" length="2.31" shape="698.25,593.37 696.45,594.82"/>
    </edge>
    <edge id=":1936511298_8" function="internal">
        <lane id=":1936511298_8_0" index="0" disallow="pedestrian tram rail_urban rail rail_electric rail_fast ship container cable_car subway aircraft wheelchair scooter drone" speed="14.30" length="16.93" shape="696.45,594.82 696.36,594.89 692.73,596.42 687.35,597.96 680.23,599.50"/>
    </edge>
    <edge id=":1936511298_3" function="internal">
        <lane id=":1936511298_3_0" index="0" disallow="pedestrian tram rail_urban rail rail_electric rail_fast ship container cable_car subway aircraft wheelchair scooter drone" speed="12.73" length="15.16" shape="679.62,596.36 684.30,595.21 688.08,593.73 690.95,591.93 692.92,589.81"/>
    </edge>
    <edge id=":1936511298_4" function="internal">
        <lane id=":1936511298_4_0" index="0" disallow="pedestrian tram rail_urban rail rail_electric rail_fast ship container cable_car subway aircraft wheelchair scooter drone" speed="8.26" length="23.89" shape="679.62,596.36 687.29,595.75 691.34,597.58 691.78,601.87 688.60,608.60"/>
    </edge>
    <edge id=":1936511298_5" function="internal">
        <lane id=":1936511298_5_0" index="0" disallow="pedestrian tram rail_urban rail rail_electric rail_fast ship container cable_car subway aircraft wheelchair scooter drone" speed="5.58" length="10.04" shape="683.17,605.20 684.67,602.17 684.68,600.21 683.20,599.32 680.23,599.50"/>
    </edge>
    <edge id=":1936511298_6" function="internal">
        <lane id=":1936511298_6_0" index="0" disallow="tram rail_urban rail rail_electric rail_fast ship container cable_car subway aircraft wheelchair scooter drone" speed="27.78" length="18.17" shape="683.17,605.20 692.92,589.81"/>
        <lane id=":1936511298_6_1" index="1" disallow="tram rail_urban rail rail_electric rail_fast ship container cable_car subway aircraft wheelchair scooter drone" speed="27.78" length="18.17" shape="685.89,606.90 695.59,591.59"/>
    </edge>
    <edge id=":1936511298_w0" function="walkingarea">
        <lane id=":1936511298_w0_0" index="0" allow="pedestrian" speed="2.78" length="15.30" width="3.20" shape="680.54,601.07 680.92,603.04 681.82,604.35 684.53,606.05 687.24,607.75 689.95,609.45 692.66,611.15 702.24,596.03 699.58,594.26 696.92,592.48 694.25,590.70 691.59,588.93 678.94,592.83 679.32,594.79"/>
    </edge>
    <edge id=":1936511305_0" function="internal">
        <lane id=":1936511305_0_0" index="0" disallow="tram rail_urban rail rail_electric rail_fast ship container cable_car subway aircraft wheelchair scooter drone" speed="5.58" length="9.35" shape="578.37,801.83 576.79,799.44 575.17,798.63 573.52,799.38 571.85,801.71"/>
    </edge>
    <edge id=":1936511305_1" function="internal">
        <lane id=":1936511305_1_0" index="0" disallow="tram rail_urban rail rail_electric rail_fast ship container cable_car subway aircraft wheelchair scooter drone" speed="27.78" length="27.53" shape="578.37,801.83 566.38,777.04"/>
    </edge>
    <edge id=":1936511305_2" function="internal">
        <lane id=":1936511305_2_0" index="0" disallow="tram rail_urban rail rail_electric rail_fast ship container cable_car subway aircraft wheelchair scooter drone" speed="13.43" length="25.07" shape="578.37,801.83 575.89,795.30 575.11,789.14 576.02,783.35 578.64,777.93"/>
    </edge>
    <edge id=":1936511305_3" function="internal">
        <lane id=":1936511305_3_0" index="0" disallow="tram rail_urban rail rail_electric rail_fast ship container cable_car subway aircraft wheelchair scooter drone" speed="12.05" length="20.05" shape="583.97,781.46 581.20,786.58 579.82,791.44 579.84,796.05 581.24,800.40"/>
    </edge>
    <edge id=":1936511305_4" function="internal">
        <lane id=":1936511305_4_0" index="0" disallow="tram rail_urban rail rail_electric rail_fast ship container cable_car subway aircraft wheelchair scooter drone" speed="27.78" length="23.74" shape="583.97,781.46 571.85,801.71"/>
        <lane id=":1936511305_4_1" index="1" disallow="tram rail_urban rail rail_electric rail_fast ship container cable_car subway aircraft wheelchair scooter drone" speed="27.78" length="23.74" shape="581.31,779.70 569.03,800.18"/>
    </edge>
    <edge id=":1936511305_6" function="internal">
        <lane id=":1936511305_6_0" index="0" disallow="tram rail_urban rail rail_electric rail_fast ship container cable_car subway aircraft wheelchair scooter drone" speed="8.14" length="3.72" shape="581.31,779.70 578.82,782.46"/>
    </edge>
    <edge id=":1936511305_14" function="internal">
        <lane id=":1936511305_14_0" index="0" disallow="tram rail_urban rail rail_electric rail_fast ship container cable_car subway aircraft wheelchair scooter drone" speed="8.14" length="17.13" shape="578.82,782.46 577.38,784.06 573.58,785.07 569.91,782.73 566.38,777.04"/>
    </edge>
    <edge id=":1936511305_7" function="internal">
        <lane id=":1936511305_7_0" index="0" disallow="tram rail_urban rail rail_electric rail_fast ship container cable_car subway aircraft wheelchair scooter drone" speed="5.64" length="9.27" shape="569.28,775.68 570.79,778.03 572.41,778.90 574.13,778.28 575.97,776.17"/>
    </edge>
    <edge id=":1936511305_8" function="internal">
        <lane id=":1936511305_8_0" index="0" disallow="tram rail_urban rail rail_electric rail_fast ship container cable_car subway aircraft wheelchair scooter drone" speed="27.78" length="27.46" shape="569.28,775.68 581.24,800.40"/>
    </edge>
    <edge id=":1936511305_9" function="internal">
        <lane id=":1936511305_9_0" index="0" disallow="tram rail_urban rail rail_electric rail_fast ship container cable_car subway aircraft wheelchair scooter drone" speed="14.54" length="25.45" shape="569.28,775.68 571.54,782.05 572.25,788.25 571.41,794.29 569.03,800.18"/>
    </edge>
    <edge id=":1936511305_10" function="internal">
        <lane id=":1936511305_10_0" index="0" disallow="tram rail_urban rail rail_electric rail_fast ship container cable_car subway aircraft wheelchair scooter drone" speed="13.24" length="21.01" shape="563.41,797.12 566.09,791.27 567.48,785.98 567.58,781.24 566.38,777.04"/>
    </edge>
    <edge id=":1936511305_11" function="internal">
        <lane id=":1936511305_11_0" index="0" disallow="tram rail_urban rail rail_electric rail_fast ship container cable_car subway aircraft wheelchair scooter drone" speed="27.78" length="24.29" shape="563.41,797.12 575.97,776.17"/>
        <lane id=":1936511305_11_1" index="1" disallow="tram rail_urban rail rail_electric rail_fast ship container cable_car subway aircraft wheelchair scooter drone" speed="27.78" length="24.29" shape="566.22,798.65 578.64,777.93"/>
    </edge>
    <edge id=":1936511305_13" function="internal">
        <lane id=":1936511305_13_0" index="0" disallow="tram rail_urban rail rail_electric rail_fast ship container cable_car subway aircraft wheelchair scooter drone" speed="8.14" length="6.22" shape="566.22,798.65 569.93,793.66"/>
    </edge>
    <edge id=":1936511305_15" function="internal">
        <lane id=":1936511305_15_0" index="0" disallow="tram rail_urban rail rail_electric rail_fast ship container cable_car subway aircraft wheelchair scooter drone" speed="8.14" length="15.36" shape="569.93,793.66 573.67,792.29 577.44,794.54 581.24,800.40"/>
    </edge>
    <edge id=":1936511305_w0" function="walkingarea">
        <lane id=":1936511305_w0_0" index="0" allow="pedestrian" speed="2.78" length="18.59" width="12.80" shape="576.94,802.54 582.67,799.69 581.69,797.09 581.28,794.37 581.44,791.54 582.16,788.59 583.45,785.53 585.31,782.35 574.63,775.28 573.22,776.73 572.55,776.88 571.91,776.64 571.30,776.01 570.72,775.00 564.93,777.73 565.78,780.22 566.09,782.95 565.87,785.93 565.12,789.16 563.83,792.64 562.01,796.36 573.25,802.47 574.51,800.92 575.13,800.73 575.74,800.94 576.34,801.54"/>
    </edge>
    <edge id=":1936511423_w0" function="walkingarea">
        <lane id=":1936511423_w0_0" index="0" allow="pedestrian" speed="2.78" length="3.20" width="6.40" shape="867.63,1387.72 864.64,1388.86 870.62,1386.58 867.63,1387.72"/>
    </edge>
    <edge id=":3681037027_w0" function="walkingarea">
        <lane id=":3681037027_w0_0" index="0" allow="pedestrian" speed="2.78" length="3.20" width="6.40" shape="-0.00,-0.00 0.48,-3.16 -0.48,3.16 0.00,-0.00"/>
    </edge>
    <edge id=":3785139730_w0" function="walkingarea">
        <lane id=":3785139730_w0_0" index="0" allow="pedestrian" speed="2.78" length="3.20" width="6.40" shape="1039.58,749.49 1042.76,749.87 1036.40,749.11 1039.58,749.49"/>
    </edge>
    <edge id=":3785139735_0" function="internal">
        <lane id=":3785139735_0_0" index="0" disallow="pedestrian tram rail_urban rail rail_electric rail_fast ship container cable_car subway aircraft wheelchair scooter drone" speed="13.89" length="8.44" shape="710.68,816.05 709.80,813.71 709.13,812.13 708.37,810.59 707.18,808.38"/>
    </edge>
    <edge id=":3785139735_1" function="internal">
        <lane id=":3785139735_1_0" index="0" allow="delivery bicycle" speed="7.50" length="2.75" shape="710.68,816.05 710.28,813.52 710.33,813.35"/>
    </edge>
    <edge id=":3785139735_6" function="internal">
        <lane id=":3785139735_6_0" index="0" allow="delivery bicycle" speed="7.50" length="8.62" shape="710.33,813.35 711.02,811.21 712.90,809.12 715.92,807.24"/>
    </edge>
    <edge id=":3785139735_2" function="internal">
        <lane id=":3785139735_2_0" index="0" allow="delivery bicycle" speed="5.89" length="6.63" shape="717.34,810.11 715.38,811.26 714.12,812.45 713.55,813.68 713.68,814.94"/>
    </edge>
    <edge id=":3785139735_3" function="internal">
        <lane id=":3785139735_3_0" index="0" allow="delivery bicycle" speed="7.39" length="11.59" shape="717.34,810.11 713.97,811.34 711.16,811.47 708.89,810.48 707.18,808.38"/>
    </edge>
    <edge id=":3785139735_4" function="internal">
        <lane id=":3785139735_4_0" index="0" allow="delivery bicycle" speed="5.74" length="6.60" shape="709.99,806.86 710.89,807.86 712.18,808.26 713.86,808.05 715.92,807.24"/>
    </edge>
    <edge id=":3785139735_5" function="internal">
        <lane id=":3785139735_5_0" index="0" disallow="pedestrian tram rail_urban rail rail_electric rail_fast ship container cable_car subway aircraft wheelchair scooter drone" speed="13.89" length="8.90" shape="709.99,806.86 711.24,809.18 712.05,810.80 712.75,812.47 713.68,814.94"/>
    </edge>
    <edge id=":3785139735_c0" function="crossing" crossingEdges="-920025287#0 920025287#0">
        <lane id=":3785139735_c0_0" index="0" allow="pedestrian" speed="2.78" length="6.40" width="4.00" shape="714.49,812.51 708.48,814.73" outlineShape="715.18,814.39 709.18,816.61 708.57,814.97 708.10,813.76 707.72,812.88 713.73,810.66 713.98,811.23 714.50,812.57"/>
    </edge>
    <edge id=":3785139735_w0" function="walkingarea">
        <lane id=":3785139735_w0_0" index="0" allow="pedestrian" speed="2.78" length="5.51" width="4.00" shape="705.77,809.15 704.01,810.10 707.30,817.30 709.18,816.61 708.57,814.97 708.10,813.76 707.67,812.79 707.21,811.83 706.60,810.68"/>
    </edge>
    <edge id=":3785139735_w1" function="walkingarea">
        <lane id=":3785139735_w1_0" index="0" allow="pedestrian" speed="2.78" length="5.28" width="4.00" shape="715.18,814.39 717.06,813.69 718.05,811.54 716.63,808.67 715.22,805.80 713.16,805.14 711.40,806.10 712.32,807.81 712.99,809.08 713.51,810.14 713.98,811.23 714.50,812.57"/>
    </edge>
    <edge id=":3785139744_0" function="internal">
        <lane id=":3785139744_0_0" index="0" disallow="pedestrian tram rail_urban rail rail_electric rail_fast ship container cable_car subway aircraft wheelchair scooter drone" speed="13.89" length="15.16" shape="732.16,867.91 724.93,854.58"/>
    </edge>
    <edge id=":3785139744_1" function="internal">
        <lane id=":3785139744_1_0" index="0" disallow="pedestrian tram rail_urban rail rail_electric rail_fast ship container cable_car subway aircraft wheelchair scooter drone" speed="7.96" length="13.52" shape="732.16,867.91 730.99,864.21 731.15,861.06 732.63,858.44 735.44,856.37"/>
    </edge>
    <edge id=":3785139744_2" function="internal">
        <lane id=":3785139744_2_0" index="0" disallow="pedestrian tram rail_urban rail rail_electric rail_fast ship container cable_car subway aircraft wheelchair scooter drone" speed="7.90" length="3.59" shape="736.91,859.21 733.52,860.39"/>
    </edge>
    <edge id=":3785139744_6" function="internal">
        <lane id=":3785139744_6_0" index="0" disallow="pedestrian tram rail_urban rail rail_electric rail_fast ship container cable_car subway aircraft wheelchair scooter drone" speed="7.90" length="11.51" shape="733.52,860.39 732.93,860.60 729.61,860.29 726.94,858.29 724.93,854.58"/>
    </edge>
    <edge id=":3785139744_3" function="internal">
        <lane id=":3785139744_3_0" index="0" disallow="pedestrian tram rail_urban rail rail_electric rail_fast ship container cable_car subway aircraft wheelchair scooter drone" speed="6.38" length="9.46" shape="727.93,853.47 729.19,855.79 730.86,857.05 732.94,857.24 735.44,856.37"/>
    </edge>
    <edge id=":3785139744_4" function="internal">
        <lane id=":3785139744_4_0" index="0" disallow="pedestrian tram rail_urban rail rail_electric rail_fast ship container cable_car subway aircraft wheelchair scooter drone" speed="7.40" length="7.05" shape="722.98,864.42 724.88,862.95 725.84,860.82 725.85,858.51"/>
    </edge>
    <edge id=":3785139744_5" function="internal">
        <lane id=":3785139744_5_0" index="0" disallow="pedestrian tram rail_urban rail rail_electric rail_fast ship container cable_car subway aircraft wheelchair scooter drone" speed="13.89" length="14.86" shape="722.98,864.42 726.82,862.28 729.24,860.47 731.65,858.62 735.44,856.37"/>
    </edge>
    <edge id=":3785139744_7" function="internal">
        <lane id=":3785139744_7_0" index="0" disallow="pedestrian tram rail_urban rail rail_electric rail_fast ship container cable_car subway aircraft wheelchair scooter drone" speed="7.40" length="4.05" shape="725.85,858.51 725.86,858.03 724.93,854.58"/>
    </edge>
    <edge id=":3785139744_c0" function="crossing" crossingEdges="117770556#1">
        <lane id=":3785139744_c0_0" index="0" allow="pedestrian" speed="2.78" length="3.20" width="4.00" shape="732.77,865.42 729.87,866.76" outlineShape="733.61,867.24 730.70,868.58 729.87,867.11 728.90,866.05 727.90,865.46 729.03,864.94 731.93,863.60 734.26,863.18 733.78,863.77 733.31,864.89 733.26,866.04"/>
    </edge>
    <edge id=":3785139744_c1" function="crossing" crossingEdges="920025286 -920025286">
        <lane id=":3785139744_c1_0" index="0" allow="pedestrian" speed="2.78" length="6.40" width="4.00" shape="732.92,855.87 735.87,861.55" outlineShape="734.70,854.95 737.65,860.63 737.69,860.72 735.95,861.64 734.66,862.69 734.38,863.03 734.10,862.48 731.15,856.80 730.54,854.76 730.68,854.92 731.49,855.43 732.43,855.60 733.50,855.44"/>
    </edge>
    <edge id=":3785139744_c2" function="crossing" crossingEdges="920025287#0 -920025287#0">
        <lane id=":3785139744_c2_0" index="0" allow="pedestrian" speed="2.78" length="6.40" width="4.00" shape="724.12,857.01 730.13,854.79" outlineShape="723.43,855.14 729.43,852.92 729.99,854.09 730.68,854.92 731.49,855.43 732.43,855.60 732.64,855.57 730.82,856.67 724.82,858.89 724.31,859.08 724.32,858.76 724.03,857.07"/>
    </edge>
    <edge id=":3785139744_c3" function="crossing" crossingEdges="375125202">
        <lane id=":3785139744_c3_0" index="0" allow="pedestrian" speed="2.78" length="3.20" width="4.00" shape="725.48,864.99 724.08,862.11" outlineShape="723.68,865.86 722.28,862.98 723.27,862.30 723.94,861.37 724.29,860.19 724.30,859.43 725.88,861.24 727.28,864.12 727.94,865.48 727.79,865.40 726.56,865.15 725.18,865.31"/>
    </edge>
    <edge id=":3785139744_w0" function="walkingarea">
        <lane id=":3785139744_w0_0" index="0" allow="pedestrian" speed="2.78" length="4.28" width="4.00" shape="723.68,865.86 728.89,869.41 730.70,868.58 729.87,867.11 728.90,866.05 727.79,865.40 726.56,865.15 725.18,865.31"/>
    </edge>
    <edge id=":3785139744_w1" function="walkingarea">
        <lane id=":3785139744_w1_0" index="0" allow="pedestrian" speed="2.78" length="4.60" width="4.00" shape="733.61,867.24 738.57,862.41 737.65,860.63 735.95,861.64 734.66,862.69 733.78,863.77 733.31,864.89 733.26,866.04"/>
    </edge>
    <edge id=":3785139744_w2" function="walkingarea">
        <lane id=":3785139744_w2_0" index="0" allow="pedestrian" speed="2.78" length="3.33" width="4.00" shape="734.70,854.95 733.78,853.18 731.31,852.22 729.43,852.92 729.99,854.09 730.68,854.92 731.49,855.43 732.43,855.60 733.50,855.44"/>
    </edge>
    <edge id=":3785139744_w3" function="walkingarea">
        <lane id=":3785139744_w3_0" index="0" allow="pedestrian" speed="2.78" length="4.76" width="4.00" shape="723.43,855.14 721.55,855.83 721.41,861.18 722.28,862.98 723.27,862.30 723.94,861.37 724.29,860.19 724.32,858.76 724.03,857.07"/>
    </edge>
    <edge id=":3846601843_0" function="internal">
        <lane id=":3846601843_0_0" index="0" disallow="pedestrian tram rail_urban rail rail_electric rail_fast ship container cable_car subway aircraft wheelchair scooter drone" speed="6.03" length="7.54" shape="479.76,620.39 477.66,619.12 475.84,618.63 474.31,618.92 473.06,619.99"/>
    </edge>
    <edge id=":3846601843_1" function="internal">
        <lane id=":3846601843_1_0" index="0" disallow="tram rail_urban rail rail_electric rail_fast ship container cable_car subway aircraft wheelchair scooter drone" speed="27.78" length="20.46" shape="479.76,620.39 463.32,608.22"/>
    </edge>
    <edge id=":3846601843_2" function="internal">
        <lane id=":3846601843_2_0" index="0" disallow="pedestrian tram rail_urban rail rail_electric rail_fast ship container cable_car subway aircraft wheelchair scooter drone" speed="15.40" length="4.53" shape="479.76,620.39 476.95,617.75 476.58,617.19"/>
    </edge>
    <edge id=":3846601843_16" function="internal">
        <lane id=":3846601843_16_0" index="0" disallow="pedestrian tram rail_urban rail rail_electric rail_fast ship container cable_car subway aircraft wheelchair scooter drone" speed="15.40" length="15.52" shape="476.58,617.19 474.56,614.13 472.55,609.26 470.92,602.88"/>
    </edge>
    <edge id=":3846601843_3" function="internal">
        <lane id=":3846601843_3_0" index="0" disallow="pedestrian tram rail_urban rail rail_electric rail_fast ship container cable_car subway aircraft wheelchair scooter drone" speed="8.35" length="14.36" shape="480.84,604.92 478.99,608.93 478.51,612.41 479.40,615.38 481.66,617.82"/>
    </edge>
    <edge id=":3846601843_4" function="internal">
        <lane id=":3846601843_4_0" index="0" disallow="pedestrian tram rail_urban rail rail_electric rail_fast ship container cable_car subway aircraft wheelchair scooter drone" speed="13.89" length="17.02" shape="480.84,604.92 478.52,609.40 477.25,612.65 475.83,615.81 473.06,619.99"/>
    </edge>
    <edge id=":3846601843_5" function="internal">
        <lane id=":3846601843_5_0" index="0" disallow="pedestrian tram rail_urban rail rail_electric rail_fast ship container cable_car subway aircraft wheelchair scooter drone" speed="9.25" length="20.84" shape="480.84,604.92 477.23,609.36 473.11,611.40 468.47,611.01 463.32,608.22"/>
    </edge>
    <edge id=":3846601843_6" function="internal">
        <lane id=":3846601843_6_0" index="0" disallow="pedestrian tram rail_urban rail rail_electric rail_fast ship container cable_car subway aircraft wheelchair scooter drone" speed="6.95" length="17.14" shape="480.84,604.92 477.56,609.28 474.81,610.40 472.60,608.26 470.92,602.88"/>
    </edge>
    <edge id=":3846601843_7" function="internal">
        <lane id=":3846601843_7_0" index="0" disallow="pedestrian tram rail_urban rail rail_electric rail_fast ship container cable_car subway aircraft wheelchair scooter drone" speed="14.50" length="17.74" shape="474.06,602.26 475.40,607.85 476.99,612.11 479.02,615.33 481.66,617.82"/>
    </edge>
    <edge id=":3846601843_8" function="internal">
        <lane id=":3846601843_8_0" index="0" disallow="pedestrian tram rail_urban rail rail_electric rail_fast ship container cable_car subway aircraft wheelchair scooter drone" speed="13.27" length="18.19" shape="474.06,602.26 474.97,608.23 475.11,613.18 474.47,617.10 473.06,619.99"/>
    </edge>
    <edge id=":3846601843_9" function="internal">
        <lane id=":3846601843_9_0" index="0" disallow="pedestrian tram rail_urban rail rail_electric rail_fast ship container cable_car subway aircraft wheelchair scooter drone" speed="7.59" length="20.73" shape="474.06,602.26 474.62,608.76 473.01,611.92 469.25,611.74 463.32,608.22"/>
    </edge>
    <edge id=":3846601843_10" function="internal">
        <lane id=":3846601843_10_0" index="0" disallow="pedestrian tram rail_urban rail rail_electric rail_fast ship container cable_car subway aircraft wheelchair scooter drone" speed="5.63" length="3.63" shape="465.23,605.65 468.34,607.51"/>
    </edge>
    <edge id=":3846601843_11" function="internal">
        <lane id=":3846601843_11_0" index="0" disallow="tram rail_urban rail rail_electric rail_fast ship container cable_car subway aircraft wheelchair scooter drone" speed="27.78" length="20.46" shape="465.23,605.65 481.66,617.82"/>
    </edge>
    <edge id=":3846601843_12" function="internal">
        <lane id=":3846601843_12_0" index="0" disallow="pedestrian tram rail_urban rail rail_electric rail_fast ship container cable_car subway aircraft wheelchair scooter drone" speed="8.71" length="7.48" shape="465.23,605.65 468.59,608.87 470.24,611.16"/>
    </edge>
    <edge id=":3846601843_17" function="internal">
        <lane id=":3846601843_17_0" index="0" disallow="pedestrian tram rail_urban rail rail_electric rail_fast ship container cable_car subway aircraft wheelchair scooter drone" speed="5.63" length="7.02" shape="468.34,607.51 470.32,607.67 471.18,606.13 470.92,602.88"/>
    </edge>
    <edge id=":3846601843_18" function="internal">
        <lane id=":3846601843_18_0" index="0" disallow="pedestrian tram rail_urban rail rail_electric rail_fast ship container cable_car subway aircraft wheelchair scooter drone" speed="8.71" length="9.64" shape="470.24,611.16 471.56,613.01 473.33,617.05 473.06,619.99"/>
    </edge>
    <edge id=":3846601843_13" function="internal">
        <lane id=":3846601843_13_0" index="0" disallow="pedestrian tram rail_urban rail rail_electric rail_fast ship container cable_car subway aircraft wheelchair scooter drone" speed="7.66" length="13.01" shape="470.51,618.06 470.88,616.36 469.81,614.15 467.29,611.44 463.32,608.22"/>
    </edge>
    <edge id=":3846601843_14" function="internal">
        <lane id=":3846601843_14_0" index="0" disallow="pedestrian tram rail_urban rail rail_electric rail_fast ship container cable_car subway aircraft wheelchair scooter drone" speed="12.28" length="15.51" shape="470.51,618.06 471.56,615.76 471.98,612.46 471.77,608.17 470.92,602.88"/>
    </edge>
    <edge id=":3846601843_15" function="internal">
        <lane id=":3846601843_15_0" index="0" disallow="pedestrian tram rail_urban rail rail_electric rail_fast ship container cable_car subway aircraft wheelchair scooter drone" speed="7.61" length="12.64" shape="470.51,618.06 472.75,616.00 475.36,615.28 478.33,615.88 481.66,617.82"/>
    </edge>
    <edge id=":3846601843_c0" function="crossing" crossingEdges="381741932#4">
        <lane id=":3846601843_c0_0" index="0" allow="pedestrian" speed="2.78" length="3.20" width="4.00" shape="478.45,605.82 481.20,607.46" outlineShape="479.47,604.10 482.22,605.74 480.47,608.95 480.33,609.27 480.18,609.18 477.43,607.54 476.94,605.39 477.24,605.71 477.91,605.77 478.65,605.23"/>
    </edge>
    <edge id=":3846601843_c1" function="crossing" crossingEdges="-381741929#2 381741929#2">
        <lane id=":3846601843_c1_0" index="0" allow="pedestrian" speed="2.78" length="6.40" width="4.00" shape="469.75,605.16 476.02,603.90" outlineShape="469.35,603.20 475.63,601.94 476.10,603.79 476.63,605.05 477.23,605.70 470.02,607.14 469.96,606.60"/>
    </edge>
    <edge id=":3846601843_c2" function="crossing" crossingEdges="-381458593 381458593">
        <lane id=":3846601843_c2_0" index="0" allow="pedestrian" speed="2.78" length="6.40" width="4.00" shape="475.55,619.36 470.44,615.50" outlineShape="474.34,620.96 469.23,617.10 469.15,617.04 469.23,617.10 469.87,615.87 470.27,614.20 470.35,612.93 476.59,617.64 476.41,617.97"/>
    </edge>
    <edge id=":3846601843_w0" function="walkingarea">
        <lane id=":3846601843_w0_0" index="0" allow="pedestrian" speed="2.78" length="9.41" width="4.00" shape="474.34,620.96 475.94,622.16 478.81,621.68 480.71,619.11 482.62,616.54 483.94,606.76 482.22,605.74 480.47,608.95 479.38,611.44 478.58,613.55 477.71,615.61 476.41,617.97"/>
    </edge>
    <edge id=":3846601843_w1" function="walkingarea">