<?xml version="1.0" encoding="UTF-8"?>

<!-- generated on 2026-04-15T00:07:23.723859+09:00 by Eclipse SUMO netconvert 1.26.0
<netconvertConfiguration xmlns:xsi="http://www.w3.org/2001/XMLSchema-instance" xsi:noNamespaceSchemaLocation="http://sumo.dlr.de/xsd/netconvertConfiguration.xsd">

    <input>
        <osm-files value="/Users/junlee/Desktop/2026-1/js/result/2026-04-15_00-06-49/sumo_nets/cw_9494/map.osm"/>
    </input>

    <output>
        <output-file value="/Users/junlee/Desktop/2026-1/js/result/2026-04-15_00-06-49/sumo_nets/cw_9494/network.net.xml"/>
    </output>

    <projection>
        <proj.utm value="true"/>
    </projection>

    <processing>
        <geometry.remove value="true"/>
        <roundabouts.guess value="true"/>
    </processing>

    <tls_building>
        <tls.guess value="true"/>
        <tls.guess-signals value="true"/>
    </tls_building>

    <ramp_guessing>
        <ramps.guess value="true"/>
    </ramp_guessing>

    <edge_removal>
        <keep-edges.by-vclass value="passenger,pedestrian"/>
    </edge_removal>

    <junctions>
        <no-turnarounds value="true"/>
        <junctions.join value="true"/>
    </junctions>

    <pedestrian>
        <sidewalks.guess value="true"/>
        <sidewalks.guess.max-speed value="13.89"/>
        <crossings.guess value="true"/>
    </pedestrian>

    <report>
        <verbose value="true"/>
    </report>

</netconvertConfiguration>
-->

<net version="1.20" junctionCornerDetail="5" walkingareas="true" limitTurnSpeed="5.50" xmlns:xsi="http://www.w3.org/2001/XMLSchema-instance" xsi:noNamespaceSchemaLocation="http://sumo.dlr.de/xsd/net_file.xsd">

    <location netOffset="-324587.51,-4158745.51" convBoundary="0.00,0.00,1434.55,1016.48" origBoundary="126.982604,37.556074,127.043588,37.568312" projParameter="+proj=utm +zone=52 +ellps=WGS84 +datum=WGS84 +units=m +no_defs"/>

    <type id="highway.cycleway" priority="1" numLanes="1" speed="5.56" allow="bicycle" oneway="0" width="2.00"/>
    <type id="highway.footway" priority="1" numLanes="1" speed="2.78" allow="pedestrian" oneway="1" width="2.00"/>
    <type id="highway.living_street" priority="2" numLanes="1" speed="2.78" disallow="tram rail_urban rail rail_electric rail_fast ship container cable_car subway aircraft wheelchair scooter drone" oneway="0"/>
    <type id="highway.pedestrian" priority="1" numLanes="1" speed="2.78" allow="pedestrian" oneway="1" width="2.00"/>
    <type id="highway.primary" priority="12" numLanes="2" speed="27.78" disallow="tram rail_urban rail rail_electric rail_fast ship container cable_car subway aircraft wheelchair scooter drone" oneway="0"/>
    <type id="highway.primary_link" priority="7" numLanes="1" speed="22.22" disallow="tram rail_urban rail rail_electric rail_fast ship container cable_car subway aircraft wheelchair scooter drone" oneway="0"/>
    <type id="highway.residential" priority="3" numLanes="1" speed="13.89" disallow="tram rail_urban rail rail_electric rail_fast ship container cable_car subway aircraft wheelchair scooter drone" oneway="0"/>
    <type id="highway.secondary" priority="11" numLanes="1" speed="27.78" disallow="tram rail_urban rail rail_electric rail_fast ship container cable_car subway aircraft wheelchair scooter drone" oneway="0"/>
    <type id="highway.service" priority="1" numLanes="1" speed="5.56" allow="pedestrian delivery bicycle" oneway="0"/>
    <type id="highway.steps" priority="1" numLanes="1" speed="1.39" allow="pedestrian" oneway="1" width="2.00"/>

    <edge id=":11125407493_0" function="internal">
        <lane id=":11125407493_0_0" index="0" disallow="pedestrian tram rail_urban rail rail_electric rail_fast ship container cable_car subway aircraft wheelchair scooter drone" speed="8.33" length="0.30" shape="1039.17,652.85 1038.87,652.88"/>
        <lane id=":11125407493_0_1" index="1" disallow="pedestrian tram rail_urban rail rail_electric rail_fast ship container cable_car subway aircraft wheelchair scooter drone" speed="8.33" length="0.30" shape="1038.91,649.66 1038.61,649.69"/>
    </edge>
    <edge id=":11125407493_w0" function="walkingarea">
        <lane id=":11125407493_w0_0" index="0" allow="pedestrian" speed="2.78" length="0.30" width="2.00" shape="1038.99,654.47 1039.15,656.47 1039.45,656.44 1039.29,654.45"/>
    </edge>
    <edge id=":11125407497_0" function="internal">
        <lane id=":11125407497_0_0" index="0" disallow="pedestrian tram rail_urban rail rail_electric rail_fast ship container cable_car subway aircraft wheelchair scooter drone" speed="8.33" length="6.64" shape="886.91,663.40 880.31,663.96"/>
        <lane id=":11125407497_0_1" index="1" disallow="pedestrian tram rail_urban rail rail_electric rail_fast ship container cable_car subway aircraft wheelchair scooter drone" speed="8.33" length="6.64" shape="886.66,660.21 880.02,660.77"/>
    </edge>
    <edge id=":11125407497_c0" function="crossing" crossingEdges="1199502738#1">
        <lane id=":11125407497_c0_0" index="0" allow="pedestrian" speed="2.78" length="6.40" width="4.00" shape="883.23,658.87 883.73,665.25" outlineShape="885.23,658.72 885.72,665.10 881.74,665.41 881.24,659.03"/>
    </edge>
    <edge id=":11125407497_w0" function="walkingarea">
        <lane id=":11125407497_w0_0" index="0" allow="pedestrian" speed="2.78" length="4.31" width="4.00" shape="880.46,665.55 880.64,667.54 884.17,669.09 886.09,668.55 887.18,666.99 887.03,665.00 885.72,665.10 881.74,665.41"/>
    </edge>
    <edge id=":11125407497_w1" function="walkingarea">
        <lane id=":11125407497_w1_0" index="0" allow="pedestrian" speed="2.78" length="2.03" width="4.00" shape="881.24,659.03 885.23,658.72 882.89,657.06 880.96,657.60"/>
    </edge>
    <edge id=":11125409455_w0" function="walkingarea">
        <lane id=":11125409455_w0_0" index="0" allow="pedestrian" speed="2.78" length="2.00" width="4.00" shape="1001.12,917.59 1001.58,919.54 1000.66,915.64 1001.12,917.59"/>
    </edge>
    <edge id=":1326096578_0" function="internal">
        <lane id=":1326096578_0_0" index="0" disallow="pedestrian tram rail_urban rail rail_electric rail_fast ship container cable_car subway aircraft wheelchair scooter drone" speed="6.53" length="9.16" shape="690.26,463.73 689.35,461.42 687.90,459.96 685.92,459.35 683.39,459.60"/>
    </edge>
    <edge id=":1326096578_1" function="internal">
        <lane id=":1326096578_1_0" index="0" disallow="pedestrian tram rail_urban rail rail_electric rail_fast ship container cable_car subway aircraft wheelchair scooter drone" speed="13.89" length="14.55" shape="690.26,463.73 686.67,449.63"/>
    </edge>
    <edge id=":1326096578_2" function="internal">
        <lane id=":1326096578_2_0" index="0" disallow="pedestrian tram rail_urban rail rail_electric rail_fast ship container cable_car subway aircraft wheelchair scooter drone" speed="8.01" length="14.23" shape="690.26,463.73 689.92,459.84 690.90,456.77 693.21,454.54 696.84,453.13"/>
    </edge>
    <edge id=":1326096578_3" function="internal">
        <lane id=":1326096578_3_0" index="0" disallow="pedestrian tram rail_urban rail rail_electric rail_fast ship container cable_car subway aircraft wheelchair scooter drone" speed="6.52" length="4.80" shape="697.56,456.25 695.25,457.14 693.78,458.57 693.70,458.83"/>
    </edge>
    <edge id=":1326096578_4" function="internal">
        <lane id=":1326096578_4_0" index="0" disallow="pedestrian tram rail_urban rail rail_electric rail_fast ship container cable_car subway aircraft wheelchair scooter drone" speed="13.89" length="14.56" shape="697.56,456.25 683.39,459.60"/>
    </edge>
    <edge id=":1326096578_5" function="internal">
        <lane id=":1326096578_5_0" index="0" disallow="pedestrian tram rail_urban rail rail_electric rail_fast ship container cable_car subway aircraft wheelchair scooter drone" speed="8.18" length="4.02" shape="697.56,456.25 693.69,456.57 693.56,456.53"/>
    </edge>
    <edge id=":1326096578_12" function="internal">
        <lane id=":1326096578_12_0" index="0" disallow="pedestrian tram rail_urban rail rail_electric rail_fast ship container cable_car subway aircraft wheelchair scooter drone" speed="6.52" length="4.28" shape="693.70,458.83 693.16,460.52 693.38,463.01"/>
    </edge>
    <edge id=":1326096578_13" function="internal">
        <lane id=":1326096578_13_0" index="0" disallow="pedestrian tram rail_urban rail rail_electric rail_fast ship container cable_car subway aircraft wheelchair scooter drone" speed="8.18" length="10.38" shape="693.56,456.53 690.58,455.58 688.24,453.26 686.67,449.63"/>
    </edge>
    <edge id=":1326096578_6" function="internal">
        <lane id=":1326096578_6_0" index="0" disallow="pedestrian tram rail_urban rail rail_electric rail_fast ship container cable_car subway aircraft wheelchair scooter drone" speed="6.72" length="9.39" shape="689.75,448.78 690.78,451.16 692.30,452.68 694.32,453.34 696.84,453.13"/>
    </edge>
    <edge id=":1326096578_7" function="internal">
        <lane id=":1326096578_7_0" index="0" disallow="pedestrian tram rail_urban rail rail_electric rail_fast ship container cable_car subway aircraft wheelchair scooter drone" speed="13.89" length="14.69" shape="689.75,448.78 693.38,463.01"/>
    </edge>
    <edge id=":1326096578_8" function="internal">
        <lane id=":1326096578_8_0" index="0" disallow="pedestrian tram rail_urban rail rail_electric rail_fast ship container cable_car subway aircraft wheelchair scooter drone" speed="7.97" length="14.43" shape="689.75,448.78 690.26,452.71 689.37,455.83 687.08,458.13 683.39,459.60"/>
    </edge>
    <edge id=":1326096578_9" function="internal">
        <lane id=":1326096578_9_0" index="0" disallow="pedestrian tram rail_urban rail rail_electric rail_fast ship container cable_car subway aircraft wheelchair scooter drone" speed="6.47" length="4.86" shape="682.64,456.49 684.97,455.55 686.42,454.10 686.50,453.83"/>
    </edge>
    <edge id=":1326096578_10" function="internal">
        <lane id=":1326096578_10_0" index="0" disallow="pedestrian tram rail_urban rail rail_electric rail_fast ship container cable_car subway aircraft wheelchair scooter drone" speed="13.89" length="14.59" shape="682.64,456.49 696.84,453.13"/>
    </edge>
    <edge id=":1326096578_11" function="internal">
        <lane id=":1326096578_11_0" index="0" disallow="pedestrian tram rail_urban rail rail_electric rail_fast ship container cable_car subway aircraft wheelchair scooter drone" speed="8.02" length="4.18" shape="682.64,456.49 686.58,456.10 686.78,456.16"/>
    </edge>
    <edge id=":1326096578_14" function="internal">
        <lane id=":1326096578_14_0" index="0" disallow="pedestrian tram rail_urban rail rail_electric rail_fast ship container cable_car subway aircraft wheelchair scooter drone" speed="6.47" length="4.29" shape="686.50,453.83 686.99,452.13 686.67,449.63"/>
    </edge>
    <edge id=":1326096578_15" function="internal">
        <lane id=":1326096578_15_0" index="0" disallow="pedestrian tram rail_urban rail rail_electric rail_fast ship container cable_car subway aircraft wheelchair scooter drone" speed="8.02" length="10.18" shape="686.78,456.16 689.69,457.06 691.95,459.36 693.38,463.01"/>
    </edge>
    <edge id=":1326096578_c0" function="crossing" crossingEdges="381802849#1 -381802849#1">
        <lane id=":1326096578_c0_0" index="0" allow="pedestrian" speed="2.78" length="6.40" width="4.00" shape="694.48,460.70 688.25,462.15" outlineShape="695.03,462.63 688.60,464.12 688.70,464.09 688.31,462.93 687.75,462.03 687.01,461.40 686.10,461.05 685.82,461.03 687.80,460.20 694.03,458.75 696.14,458.57 695.85,458.74 695.22,459.47 694.86,460.36 694.76,461.42"/>
    </edge>
    <edge id=":1326096578_c1" function="crossing" crossingEdges="-117770562#1 117770562#1">
        <lane id=":1326096578_c1_0" index="0" allow="pedestrian" speed="2.78" length="6.40" width="4.00" shape="694.53,452.02 695.97,458.26" outlineShape="696.48,451.57 697.92,457.81 696.75,458.19 695.85,458.74 695.22,459.47 694.86,460.36 694.83,460.69 694.02,458.71 692.58,452.47 692.29,450.42 692.38,450.55 693.17,451.23 694.11,451.63 695.21,451.74"/>
    </edge>
    <edge id=":1326096578_c2" function="crossing" crossingEdges="-381802849#0 381802849#0">
        <lane id=":1326096578_c2_0" index="0" allow="pedestrian" speed="2.78" length="6.40" width="4.00" shape="685.66,451.98 691.83,450.28" outlineShape="685.13,450.06 691.29,448.35 691.76,449.59 692.38,450.55 693.17,451.23 694.11,451.63 694.29,451.64 692.36,452.20 686.19,453.91 684.07,454.13 684.33,453.97 684.95,453.24 685.29,452.34 685.35,451.28"/>
    </edge>
    <edge id=":1326096578_c3" function="crossing" crossingEdges="117770562#2 -117770562#2">
        <lane id=":1326096578_c3_0" index="0" allow="pedestrian" speed="2.78" length="6.40" width="4.00" shape="685.71,460.68 684.20,454.46" outlineShape="683.76,461.15 682.26,454.93 683.44,454.53 684.33,453.97 684.95,453.24 685.29,452.34 685.31,452.03 686.15,453.99 687.65,460.21 687.91,462.29 687.75,462.03 687.01,461.40 686.10,461.05 685.02,460.96"/>
    </edge>
    <edge id=":1326096578_w0" function="walkingarea">
        <lane id=":1326096578_w0_0" index="0" allow="pedestrian" speed="2.78" length="3.36" width="4.00" shape="683.76,461.15 684.23,463.10 686.75,464.55 688.70,464.09 688.31,462.93 687.75,462.03 687.01,461.40 686.10,461.05 685.02,460.96"/>
    </edge>
    <edge id=":1326096578_w1" function="walkingarea">
        <lane id=":1326096578_w1_0" index="0" allow="pedestrian" speed="2.78" length="3.32" width="4.00" shape="694.93,462.65 696.88,462.20 698.37,459.75 697.92,457.81 696.75,458.19 695.85,458.74 695.22,459.47 694.86,460.36 694.76,461.42"/>
    </edge>
    <edge id=":1326096578_w2" function="walkingarea">
        <lane id=":1326096578_w2_0" index="0" allow="pedestrian" speed="2.78" length="3.57" width="4.00" shape="696.48,451.57 696.03,449.62 693.22,447.81 691.29,448.35 691.76,449.59 692.38,450.55 693.17,451.23 694.11,451.63 695.21,451.74"/>
    </edge>
    <edge id=":1326096578_w3" function="walkingarea">
        <lane id=":1326096578_w3_0" index="0" allow="pedestrian" speed="2.78" length="3.31" width="4.00" shape="685.13,450.06 683.20,450.59 681.79,452.99 682.26,454.93 683.44,454.53 684.33,453.97 684.95,453.24 685.29,452.34 685.35,451.28"/>
    </edge>
    <edge id=":1326096582_w0" function="walkingarea">
        <lane id=":1326096582_w0_0" index="0" allow="pedestrian" speed="2.78" length="8.40" width="2.00" shape="668.33,315.95 670.20,316.64 660.46,313.02 662.33,313.71"/>
    </edge>
    <edge id=":1326096589_0" function="internal">
        <lane id=":1326096589_0_0" index="0" disallow="pedestrian tram rail_urban rail rail_electric rail_fast ship container cable_car subway aircraft wheelchair scooter drone" speed="6.52" length="9.00" shape="802.84,467.48 803.72,469.79 805.12,471.27 807.05,471.92 809.50,471.75"/>
    </edge>
    <edge id=":1326096589_1" function="internal">
        <lane id=":1326096589_1_0" index="0" disallow="pedestrian tram rail_urban rail rail_electric rail_fast ship container cable_car subway aircraft wheelchair scooter drone" speed="6.50" length="8.99" shape="795.53,474.87 797.82,473.98 799.29,472.58 799.92,470.64 799.72,468.19"/>
    </edge>
    <edge id=":1326096589_2" function="internal">
        <lane id=":1326096589_2_0" index="0" disallow="pedestrian tram rail_urban rail rail_electric rail_fast ship container cable_car subway aircraft wheelchair scooter drone" speed="8.33" length="14.31" shape="795.53,474.87 809.50,471.75"/>
    </edge>
    <edge id=":1326096589_c0" function="crossing" crossingEdges="381802873 -381802873">
        <lane id=":1326096589_c0_0" index="0" allow="pedestrian" speed="2.78" length="6.40" width="4.00" shape="798.60,470.49 804.84,469.08" outlineShape="798.16,468.54 804.40,467.13 804.78,468.30 805.32,469.20 806.03,469.84 806.91,470.22 807.27,470.26 805.29,471.03 799.04,472.44 796.91,472.58 797.22,472.39 797.85,471.67 798.22,470.80 798.32,469.75"/>
    </edge>
    <edge id=":1326096589_w0" function="walkingarea">
        <lane id=":1326096589_w0_0" index="0" allow="pedestrian" speed="2.78" length="3.53" width="4.00" shape="809.16,470.19 808.74,468.23 806.35,466.69 804.40,467.13 804.78,468.30 805.32,469.20 806.03,469.84 806.91,470.22 807.95,470.34"/>
    </edge>
    <edge id=":1326096589_w1" function="walkingarea">
        <lane id=":1326096589_w1_0" index="0" allow="pedestrian" speed="2.78" length="3.52" width="4.00" shape="798.16,468.54 796.21,468.98 794.72,471.36 795.17,473.31 796.32,472.93 797.22,472.39 797.85,471.67 798.22,470.80 798.32,469.75"/>
    </edge>
    <edge id=":1326096592_0" function="internal">
        <lane id=":1326096592_0_0" index="0" disallow="pedestrian tram rail_urban rail rail_electric rail_fast ship container cable_car subway aircraft wheelchair scooter drone" speed="13.89" length="11.16" shape="579.86,522.88 578.38,519.91 577.31,517.92 576.13,515.98 574.35,513.18"/>
    </edge>
    <edge id=":1326096592_1" function="internal">
        <lane id=":1326096592_1_0" index="0" disallow="pedestrian tram rail_urban rail rail_electric rail_fast ship container cable_car subway aircraft wheelchair scooter drone" speed="6.63" length="2.39" shape="579.86,522.88 579.35,520.55"/>
    </edge>
    <edge id=":1326096592_7" function="internal">
        <lane id=":1326096592_7_0" index="0" disallow="pedestrian tram rail_urban rail rail_electric rail_fast ship container cable_car subway aircraft wheelchair scooter drone" speed="6.63" length="9.11" shape="579.35,520.55 580.34,518.65 582.82,517.20 586.79,516.18"/>
    </edge>
    <edge id=":1326096592_2" function="internal">
        <lane id=":1326096592_2_0" index="0" disallow="pedestrian tram rail_urban rail rail_electric rail_fast ship container cable_car subway aircraft wheelchair scooter drone" speed="8.61" length="7.37" shape="577.05,511.46 579.03,513.91 581.31,515.51 582.68,515.91"/>
    </edge>
    <edge id=":1326096592_3" function="internal">
        <lane id=":1326096592_3_0" index="0" disallow="pedestrian tram rail_urban rail rail_electric rail_fast ship container cable_car subway aircraft wheelchair scooter drone" speed="13.89" length="11.52" shape="577.05,511.46 578.88,514.35 580.10,516.35 581.21,518.41 582.73,521.47"/>
    </edge>
    <edge id=":1326096592_8" function="internal">
        <lane id=":1326096592_8_0" index="0" disallow="pedestrian tram rail_urban rail rail_electric rail_fast ship container cable_car subway aircraft wheelchair scooter drone" speed="8.61" length="4.15" shape="582.68,515.91 583.90,516.27 586.79,516.18"/>
    </edge>
    <edge id=":1326096592_4" function="internal">
        <lane id=":1326096592_4_0" index="0" disallow="pedestrian tram rail_urban rail rail_electric rail_fast ship container cable_car subway aircraft wheelchair scooter drone" speed="6.40" length="9.37" shape="572.23,520.92 574.36,519.42 575.43,517.64 575.42,515.56 574.35,513.18"/>
    </edge>
    <edge id=":1326096592_5" function="internal">
        <lane id=":1326096592_5_0" index="0" disallow="pedestrian tram rail_urban rail rail_electric rail_fast ship container cable_car subway aircraft wheelchair scooter drone" speed="8.33" length="15.42" shape="572.23,520.92 576.32,518.90 579.24,517.74 582.29,516.97 586.79,516.18"/>
    </edge>
    <edge id=":1326096592_6" function="internal">
        <lane id=":1326096592_6_0" index="0" disallow="pedestrian tram rail_urban rail rail_electric rail_fast ship container cable_car subway aircraft wheelchair scooter drone" speed="7.31" length="11.76" shape="572.23,520.92 575.96,519.40 578.95,518.99 581.21,519.68 582.73,521.47"/>
    </edge>
    <edge id=":1326096592_c0" function="crossing" crossingEdges="-420090510#4 420090510#4">
        <lane id=":1326096592_c0_0" index="0" allow="pedestrian" speed="2.78" length="6.40" width="4.00" shape="583.29,518.97 577.54,521.79" outlineShape="584.17,520.77 578.42,523.59 577.83,522.66 577.11,522.02 576.27,521.67 575.29,521.61 575.02,521.66 576.66,519.99 582.40,517.18 585.03,518.36 584.32,518.85 583.98,519.40 583.93,520.04"/>
    </edge>
    <edge id=":1326096592_c1" function="crossing" crossingEdges="117770558#0">
        <lane id=":1326096592_c1_0" index="0" allow="pedestrian" speed="2.78" length="3.20" width="4.00" shape="584.55,514.93 585.08,518.09" outlineShape="586.52,514.60 587.05,517.75 585.85,518.03 584.94,518.39 584.32,518.85 583.98,519.40 583.93,520.04 583.99,520.22 583.11,518.42 582.57,515.27 582.39,514.18 583.38,514.54 584.90,514.73"/>
    </edge>
    <edge id=":1326096592_c2" function="crossing" crossingEdges="420090510#5 -420090510#5">
        <lane id=":1326096592_c2_0" index="0" allow="pedestrian" speed="2.78" length="6.40" width="4.00" shape="574.08,515.73 579.47,512.29" outlineShape="573.00,514.04 578.40,510.60 579.48,512.06 580.67,513.20 581.22,513.55 580.55,513.97 575.15,517.42 573.18,518.21 573.34,518.04 573.76,517.18 573.84,516.23 573.59,515.18"/>
    </edge>
    <edge id=":1326096592_c3" function="crossing" crossingEdges="519060522#4">
        <lane id=":1326096592_c3_0" index="0" allow="pedestrian" speed="2.78" length="3.20" width="4.00" shape="574.73,521.45 573.29,518.59" outlineShape="572.95,522.35 571.50,519.49 571.46,519.40 571.50,519.49 572.59,518.81 573.34,518.04 573.76,517.18 573.84,516.23 573.78,516.00 575.08,517.69 576.52,520.55 577.38,522.26 577.11,522.02 576.27,521.67 575.29,521.61 574.18,521.83"/>
    </edge>
    <edge id=":1326096592_w0" function="walkingarea">
        <lane id=":1326096592_w0_0" index="0" allow="pedestrian" speed="2.78" length="2.96" width="4.00" shape="572.95,522.35 576.63,524.47 578.42,523.59 577.83,522.66 577.11,522.02 576.27,521.67 575.29,521.61 574.18,521.83"/>
    </edge>
    <edge id=":1326096592_w1" function="walkingarea">
        <lane id=":1326096592_w1_0" index="0" allow="pedestrian" speed="2.78" length="2.16" width="4.00" shape="584.17,520.77 585.96,519.89 587.05,517.75 585.85,518.03 584.94,518.39 584.32,518.85 583.98,519.40 583.93,520.04"/>
    </edge>
    <edge id=":1326096592_w2" function="walkingarea">
        <lane id=":1326096592_w2_0" index="0" allow="pedestrian" speed="2.78" length="5.39" width="4.00" shape="586.52,514.60 586.18,512.63 580.08,509.53 578.40,510.60 579.48,512.06 580.67,513.20 581.97,514.03 583.38,514.54 584.90,514.73"/>
    </edge>
    <edge id=":1326096592_w3" function="walkingarea">
        <lane id=":1326096592_w3_0" index="0" allow="pedestrian" speed="2.78" length="3.32" width="4.00" shape="573.00,514.04 571.31,515.12 570.60,517.71 571.50,519.49 572.59,518.81 573.34,518.04 573.76,517.18 573.84,516.23 573.59,515.18"/>
    </edge>
    <edge id=":1326096599_w0" function="walkingarea">
        <lane id=":1326096599_w0_0" index="0" allow="pedestrian" speed="2.78" length="8.40" width="2.00" shape="478.63,458.44 478.89,456.45 477.55,466.77 477.81,464.78"/>
    </edge>
    <edge id=":1326096622_0" function="internal">
        <lane id=":1326096622_0_0" index="0" disallow="pedestrian tram rail_urban rail rail_electric rail_fast ship container cable_car subway aircraft wheelchair scooter drone" speed="13.89" length="15.57" shape="634.98,623.77 632.20,620.07 630.32,617.52 628.56,614.89 626.12,610.97"/>
    </edge>
    <edge id=":1326096622_1" function="internal">
        <lane id=":1326096622_1_0" index="0" disallow="pedestrian tram rail_urban rail rail_electric rail_fast ship container cable_car subway aircraft wheelchair scooter drone" speed="7.79" length="4.77" shape="634.98,623.77 632.69,619.59"/>
    </edge>
    <edge id=":1326096622_6" function="internal">
        <lane id=":1326096622_6_0" index="0" disallow="pedestrian tram rail_urban rail rail_electric rail_fast ship container cable_car subway aircraft wheelchair scooter drone" speed="7.79" length="12.20" shape="632.69,619.59 632.61,619.45 632.52,615.89 634.71,613.07 639.18,611.01"/>
    </edge>
    <edge id=":1326096622_2" function="internal">
        <lane id=":1326096622_2_0" index="0" disallow="pedestrian tram rail_urban rail rail_electric rail_fast ship container cable_car subway aircraft wheelchair scooter drone" speed="6.22" length="10.35" shape="640.10,614.07 637.38,615.33 636.05,617.05 636.10,619.22 637.54,621.85"/>
    </edge>
    <edge id=":1326096622_3" function="internal">
        <lane id=":1326096622_3_0" index="0" disallow="pedestrian tram rail_urban rail rail_electric rail_fast ship container cable_car subway aircraft wheelchair scooter drone" speed="9.24" length="15.48" shape="640.10,614.07 635.40,615.03 631.51,614.84 628.41,613.48 626.12,610.97"/>
    </edge>
    <edge id=":1326096622_4" function="internal">
        <lane id=":1326096622_4_0" index="0" disallow="pedestrian tram rail_urban rail rail_electric rail_fast ship container cable_car subway aircraft wheelchair scooter drone" speed="7.95" length="7.23" shape="628.84,609.30 630.43,610.93 632.68,611.76 635.24,611.78"/>
    </edge>
    <edge id=":1326096622_5" function="internal">
        <lane id=":1326096622_5_0" index="0" disallow="pedestrian tram rail_urban rail rail_electric rail_fast ship container cable_car subway aircraft wheelchair scooter drone" speed="13.89" length="15.28" shape="628.84,609.30 631.24,613.15 632.98,615.72 634.82,618.23 637.54,621.85"/>
    </edge>
    <edge id=":1326096622_7" function="internal">
        <lane id=":1326096622_7_0" index="0" disallow="pedestrian tram rail_urban rail rail_electric rail_fast ship container cable_car subway aircraft wheelchair scooter drone" speed="7.95" length="4.03" shape="635.24,611.78 635.59,611.79 639.18,611.01"/>
    </edge>
    <edge id=":1326096622_c0" function="crossing" crossingEdges="-420090510#0 420090510#0">
        <lane id=":1326096622_c0_0" index="0" allow="pedestrian" speed="2.78" length="6.40" width="4.00" shape="637.63,619.29 632.50,623.12" outlineShape="638.82,620.90 633.69,624.72 633.61,624.78 633.69,624.72 631.69,622.05 631.29,621.53 636.43,617.69 638.31,616.81 637.81,617.63 637.72,618.58 638.06,619.67"/>
    </edge>
    <edge id=":1326096622_c1" function="crossing" crossingEdges="-117770538#1 117770538#1">
        <lane id=":1326096622_c1_0" index="0" allow="pedestrian" speed="2.78" length="6.40" width="4.00" shape="636.80,610.05 638.65,616.18" outlineShape="638.72,609.48 640.57,615.60 640.59,615.70 640.57,615.60 639.23,616.14 638.31,616.81 637.81,617.63 637.72,618.58 636.74,616.76 634.89,610.63 634.78,610.26 636.63,610.01"/>
    </edge>
    <edge id=":1326096622_c2" function="crossing" crossingEdges="420090510#1 -420090510#1">
        <lane id=":1326096622_c2_0" index="0" allow="pedestrian" speed="2.78" length="6.40" width="4.00" shape="625.80,613.51 631.25,610.17" outlineShape="624.75,611.81 630.21,608.46 630.29,608.41 630.21,608.46 630.96,609.33 631.98,609.92 633.26,610.23 634.81,610.26 634.97,610.23 626.87,615.20 626.51,614.65"/>
    </edge>
    <edge id=":1326096622_w0" function="walkingarea">
        <lane id=":1326096622_w0_0" index="0" allow="pedestrian" speed="2.78" length="9.93" width="4.00" shape="624.75,611.81 623.05,612.85 624.83,615.73 626.18,617.84 627.34,619.54 628.56,621.21 630.06,623.21 632.09,625.92 633.69,624.72 631.69,622.05 630.20,620.07 629.00,618.42 627.85,616.74 626.51,614.65"/>
    </edge>
    <edge id=":1326096622_w1" function="walkingarea">
        <lane id=":1326096622_w1_0" index="0" allow="pedestrian" speed="2.78" length="3.36" width="4.00" shape="638.82,620.90 640.42,619.70 641.14,617.52 640.57,615.60 639.23,616.14 638.31,616.81 637.81,617.63 637.72,618.58 638.06,619.67"/>
    </edge>
    <edge id=":1326096622_w2" function="walkingarea">
        <lane id=":1326096622_w2_0" index="0" allow="pedestrian" speed="2.78" length="5.15" width="4.00" shape="638.72,609.48 638.14,607.56 631.91,607.42 630.21,608.46 630.96,609.33 631.98,609.92 633.26,610.23 634.81,610.26 636.63,610.01"/>
    </edge>
    <edge id=":1326096639_0" function="internal">
        <lane id=":1326096639_0_0" index="0" disallow="pedestrian tram rail_urban rail rail_electric rail_fast ship container cable_car subway aircraft wheelchair scooter drone" speed="6.47" length="4.85" shape="724.15,594.67 723.16,592.36 721.67,590.95 721.40,590.88"/>
    </edge>
    <edge id=":1326096639_1" function="internal">
        <lane id=":1326096639_1_0" index="0" disallow="pedestrian tram rail_urban rail rail_electric rail_fast ship container cable_car subway aircraft wheelchair scooter drone" speed="13.89" length="14.41" shape="724.15,594.67 720.39,580.76"/>
    </edge>
    <edge id=":1326096639_6" function="internal">
        <lane id=":1326096639_6_0" index="0" disallow="pedestrian tram rail_urban rail rail_electric rail_fast ship container cable_car subway aircraft wheelchair scooter drone" speed="6.47" length="4.29" shape="721.40,590.88 719.68,590.43 717.20,590.81"/>
    </edge>
    <edge id=":1326096639_2" function="internal">
        <lane id=":1326096639_2_0" index="0" disallow="pedestrian tram rail_urban rail rail_electric rail_fast ship container cable_car subway aircraft wheelchair scooter drone" speed="13.89" length="14.42" shape="723.48,579.92 727.24,593.84"/>
    </edge>
    <edge id=":1326096639_3" function="internal">
        <lane id=":1326096639_3_0" index="0" disallow="pedestrian tram rail_urban rail rail_electric rail_fast ship container cable_car subway aircraft wheelchair scooter drone" speed="8.10" length="3.99" shape="723.48,579.92 723.93,583.72 723.88,583.88"/>
    </edge>
    <edge id=":1326096639_7" function="internal">
        <lane id=":1326096639_7_0" index="0" disallow="pedestrian tram rail_urban rail rail_electric rail_fast ship container cable_car subway aircraft wheelchair scooter drone" speed="8.10" length="10.25" shape="723.88,583.88 723.03,586.80 720.79,589.16 717.20,590.81"/>
    </edge>
    <edge id=":1326096639_4" function="internal">