<?xml version="1.0" encoding="UTF-8"?>

<!-- generated on 2026-04-15T00:09:58.395280+09:00 by Eclipse SUMO netconvert 1.26.0
<netconvertConfiguration xmlns:xsi="http://www.w3.org/2001/XMLSchema-instance" xsi:noNamespaceSchemaLocation="http://sumo.dlr.de/xsd/netconvertConfiguration.xsd">

    <input>
        <osm-files value="/Users/junlee/Desktop/2026-1/js/result/2026-04-15_00-06-49/sumo_nets/cw_71666/map.osm"/>
    </input>

    <output>
        <output-file value="/Users/junlee/Desktop/2026-1/js/result/2026-04-15_00-06-49/sumo_nets/cw_71666/network.net.xml"/>
    </output>

    <projection>
        <proj.utm value="true"/>
    </projection>

    <processing>
        <geometry.remove value="true"/>
        <roundabouts.guess value="true"/>
    </processing>

    <tls_building>
        <tls.guess value="true"/>
        <tls.guess-signals value="true"/>
    </tls_building>

    <ramp_guessing>
        <ramps.guess value="true"/>
    </ramp_guessing>

    <edge_removal>
        <keep-edges.by-vclass value="passenger,pedestrian"/>
    </edge_removal>

    <junctions>
        <no-turnarounds value="true"/>
        <junctions.join value="true"/>
    </junctions>

    <pedestrian>
        <sidewalks.guess value="true"/>
        <sidewalks.guess.max-speed value="13.89"/>
        <crossings.guess value="true"/>
    </pedestrian>

    <report>
        <verbose value="true"/>
    </report>

</netconvertConfiguration>
-->

<net version="1.20" junctionCornerDetail="5" walkingareas="true" limitTurnSpeed="5.50" xmlns:xsi="http://www.w3.org/2001/XMLSchema-instance" xsi:noNamespaceSchemaLocation="http://sumo.dlr.de/xsd/net_file.xsd">

    <location netOffset="-323590.61,-4158699.42" convBoundary="0.00,0.00,683.07,630.68" origBoundary="127.002635,37.558536,127.010379,37.564198" projParameter="+proj=utm +zone=52 +ellps=WGS84 +datum=WGS84 +units=m +no_defs"/>

    <type id="highway.footway" priority="1" numLanes="1" speed="2.78" allow="pedestrian" oneway="1" width="2.00"/>
    <type id="highway.path" priority="1" numLanes="1" speed="5.56" allow="pedestrian bicycle" oneway="0" width="2.00"/>
    <type id="highway.pedestrian" priority="1" numLanes="1" speed="2.78" allow="pedestrian" oneway="1" width="2.00"/>
    <type id="highway.primary" priority="12" numLanes="2" speed="27.78" disallow="tram rail_urban rail rail_electric rail_fast ship container cable_car subway aircraft wheelchair scooter drone" oneway="0"/>
    <type id="highway.primary_link" priority="7" numLanes="1" speed="22.22" disallow="tram rail_urban rail rail_electric rail_fast ship container cable_car subway aircraft wheelchair scooter drone" oneway="0"/>
    <type id="highway.residential" priority="3" numLanes="1" speed="13.89" disallow="tram rail_urban rail rail_electric rail_fast ship container cable_car subway aircraft wheelchair scooter drone" oneway="0"/>
    <type id="highway.service" priority="1" numLanes="1" speed="5.56" allow="pedestrian delivery bicycle" oneway="0"/>

    <edge id=":10316130601_0" function="internal">
        <lane id=":10316130601_0_0" index="0" disallow="tram rail_urban rail rail_electric rail_fast ship container cable_car subway aircraft wheelchair scooter drone" speed="27.78" length="4.99" shape="297.93,323.20 295.99,318.61"/>
        <lane id=":10316130601_0_1" index="1" disallow="tram rail_urban rail rail_electric rail_fast ship container cable_car subway aircraft wheelchair scooter drone" speed="27.78" length="4.99" shape="300.88,321.97 298.93,317.36"/>
    </edge>
    <edge id=":10316130601_2" function="internal">
        <lane id=":10316130601_2_0" index="0" disallow="tram rail_urban rail rail_electric rail_fast ship container cable_car subway aircraft wheelchair scooter drone" speed="27.78" length="5.03" shape="304.82,314.86 306.79,319.50"/>
        <lane id=":10316130601_2_1" index="1" disallow="tram rail_urban rail rail_electric rail_fast ship container cable_car subway aircraft wheelchair scooter drone" speed="27.78" length="5.03" shape="301.88,316.11 303.84,320.73"/>
    </edge>
    <edge id=":10316130601_w0" function="walkingarea">
        <lane id=":10316130601_w0_0" index="0" allow="pedestrian" speed="2.78" length="8.58" width="12.80" shape="296.48,323.89 308.30,318.97 308.16,318.03 308.28,317.54 308.51,317.04 308.87,316.54 309.35,316.02 307.97,314.58 307.30,315.00 307.01,315.01 306.74,314.89 306.51,314.63 306.30,314.24 294.51,319.23"/>
    </edge>
    <edge id=":10316130604_0" function="internal">
        <lane id=":10316130604_0_0" index="0" disallow="tram rail_urban rail rail_electric rail_fast ship container cable_car subway aircraft wheelchair scooter drone" speed="27.78" length="5.10" shape="291.00,306.85 289.02,302.15"/>
        <lane id=":10316130604_0_1" index="1" disallow="tram rail_urban rail rail_electric rail_fast ship container cable_car subway aircraft wheelchair scooter drone" speed="27.78" length="5.10" shape="293.95,305.60 291.96,300.91"/>
    </edge>
    <edge id=":10316130604_2" function="internal">
        <lane id=":10316130604_2_0" index="0" disallow="tram rail_urban rail rail_electric rail_fast ship container cable_car subway aircraft wheelchair scooter drone" speed="27.78" length="5.10" shape="297.86,298.41 299.84,303.10"/>
        <lane id=":10316130604_2_1" index="1" disallow="tram rail_urban rail rail_electric rail_fast ship container cable_car subway aircraft wheelchair scooter drone" speed="27.78" length="5.10" shape="294.91,299.66 296.90,304.35"/>
    </edge>
    <edge id=":10316130604_w0" function="walkingarea">
        <lane id=":10316130604_w0_0" index="0" allow="pedestrian" speed="2.78" length="8.59" width="12.80" shape="289.53,307.47 301.32,302.48 301.17,301.56 301.28,301.10 301.52,300.64 301.87,300.18 302.35,299.72 301.06,298.20 300.36,298.58 300.06,298.58 299.78,298.45 299.54,298.18 299.33,297.79 287.54,302.78"/>
    </edge>
    <edge id=":10316183264_w0" function="walkingarea">
        <lane id=":10316183264_w0_0" index="0" allow="pedestrian" speed="2.78" length="3.20" width="6.40" shape="410.19,146.19 407.63,148.11 412.75,144.27 410.19,146.19"/>
    </edge>
    <edge id=":11118688119_0" function="internal">
        <lane id=":11118688119_0_0" index="0" disallow="pedestrian tram rail_urban rail rail_electric rail_fast ship container cable_car subway aircraft wheelchair scooter drone" speed="13.89" length="5.09" shape="323.73,468.00 325.89,463.38"/>
    </edge>
    <edge id=":11118688119_c0" function="crossing" crossingEdges="381447835#3">
        <lane id=":11118688119_c0_0" index="0" allow="pedestrian" speed="2.78" length="3.20" width="4.00" shape="323.36,465.01 326.26,466.37" outlineShape="324.21,463.20 327.11,464.55 325.42,468.18 322.52,466.83 324.21,463.20 324.44,462.71 322.62,461.86 320.47,466.48 322.28,467.32 322.52,466.83"/>
    </edge>
    <edge id=":11118688119_w0" function="walkingarea">
        <lane id=":11118688119_w0_0" index="0" allow="pedestrian" speed="2.78" length="1.81" width="4.00" shape="326.93,468.32 328.27,466.84 327.11,464.55 325.42,468.18"/>
    </edge>
    <edge id=":11118688119_w1" function="walkingarea">
        <lane id=":11118688119_w1_0" index="0" allow="pedestrian" speed="2.78" length="3.52" width="4.00" shape="322.52,466.83 324.21,463.20 324.44,462.71 322.62,461.86 320.47,466.48 322.28,467.32"/>
    </edge>
    <edge id=":11118688131_0" function="internal">
        <lane id=":11118688131_0_0" index="0" disallow="pedestrian tram rail_urban rail rail_electric rail_fast ship container cable_car subway aircraft wheelchair scooter drone" speed="13.89" length="4.68" shape="354.91,590.75 354.28,589.52 353.75,588.73 353.15,587.98 352.32,586.87"/>
    </edge>
    <edge id=":11118688131_c0" function="crossing" crossingEdges="381447835#0">
        <lane id=":11118688131_c0_0" index="0" allow="pedestrian" speed="2.78" length="3.20" width="4.00" shape="355.53,588.26 352.62,589.60" outlineShape="356.36,590.08 353.37,591.46 353.05,590.58 352.70,589.99 352.36,589.53 352.00,589.08 351.56,588.54 351.16,588.00 354.69,586.45"/>
    </edge>
    <edge id=":11118688131_w0" function="walkingarea">
        <lane id=":11118688131_w0_0" index="0" allow="pedestrian" speed="2.78" length="2.89" width="4.00" shape="351.16,588.00 349.52,589.16 351.64,592.25 353.46,591.42 353.05,590.58 352.70,589.99 352.36,589.53 352.00,589.08 351.56,588.54"/>
    </edge>
    <edge id=":11118688131_w1" function="walkingarea">
        <lane id=":11118688131_w1_0" index="0" allow="pedestrian" speed="2.78" length="1.87" width="4.00" shape="354.69,586.45 356.36,590.08 356.98,587.21 355.51,585.86"/>
    </edge>
    <edge id=":11118688132_w0" function="walkingarea">
        <lane id=":11118688132_w0_0" index="0" allow="pedestrian" speed="2.78" length="3.73" width="2.00" shape="331.75,472.71 333.10,471.23 329.39,467.86 328.05,469.34 328.07,471.38 329.44,472.83"/>
    </edge>
    <edge id=":11118688133_0" function="internal">
        <lane id=":11118688133_0_0" index="0" disallow="pedestrian tram rail_urban rail rail_electric rail_fast ship container cable_car subway aircraft wheelchair scooter drone" speed="13.89" length="5.01" shape="316.15,486.90 317.54,482.09"/>
    </edge>
    <edge id=":11118688133_c0" function="crossing" crossingEdges="381447835#2">
        <lane id=":11118688133_c0_0" index="0" allow="pedestrian" speed="2.78" length="3.20" width="4.00" shape="315.31,484.05 318.38,484.94" outlineShape="315.86,482.13 318.93,483.02 317.83,486.86 318.03,486.49 317.83,486.86 314.75,485.98 315.86,482.13 316.00,481.65 314.08,481.10 312.69,485.90 314.61,486.46 314.75,485.98"/>
    </edge>
    <edge id=":11118688133_w0" function="walkingarea">
        <lane id=":11118688133_w0_0" index="0" allow="pedestrian" speed="2.78" length="0.30" width="4.00" shape="318.30,485.98 319.01,484.11 318.93,483.02 317.83,486.86"/>
    </edge>
    <edge id=":11118688133_w1" function="walkingarea">
        <lane id=":11118688133_w1_0" index="0" allow="pedestrian" speed="2.78" length="3.47" width="4.00" shape="314.75,485.98 315.86,482.13 316.00,481.65 314.08,481.10 312.69,485.90 314.61,486.46"/>
    </edge>
    <edge id=":11124281662_w0" function="walkingarea">
        <lane id=":11124281662_w0_0" index="0" allow="pedestrian" speed="2.78" length="3.99" width="4.00" shape="382.07,507.19 384.03,506.78 384.04,505.94 384.21,505.65 384.49,505.44 384.88,505.32 385.38,505.28 385.28,501.28 384.40,501.11 384.05,500.92 383.76,500.65 383.53,500.30 383.36,499.87 379.55,500.95 380.45,503.27 380.89,504.05 381.32,504.82 381.71,505.81"/>
    </edge>
    <edge id=":1327210671_0" function="internal">
        <lane id=":1327210671_0_0" index="0" disallow="pedestrian tram rail_urban rail rail_electric rail_fast ship container cable_car subway aircraft wheelchair scooter drone" speed="11.05" length="10.99" shape="309.31,422.64 306.67,425.03 304.78,428.01 303.64,431.58 303.63,431.74"/>
    </edge>
    <edge id=":1327210671_1" function="internal">
        <lane id=":1327210671_1_0" index="0" disallow="pedestrian tram rail_urban rail rail_electric rail_fast ship container cable_car subway aircraft wheelchair scooter drone" speed="13.89" length="18.24" shape="309.31,422.64 304.83,425.67 301.63,427.55 298.26,429.10 293.25,431.15"/>
    </edge>
    <edge id=":1327210671_2" function="internal">
        <lane id=":1327210671_2_0" index="0" disallow="pedestrian tram rail_urban rail rail_electric rail_fast ship container cable_car subway aircraft wheelchair scooter drone" speed="7.86" length="4.35" shape="309.31,422.64 305.42,424.58"/>
    </edge>
    <edge id=":1327210671_12" function="internal">
        <lane id=":1327210671_12_0" index="0" disallow="pedestrian tram rail_urban rail rail_electric rail_fast ship container cable_car subway aircraft wheelchair scooter drone" speed="11.05" length="4.02" shape="303.63,431.74 303.26,435.74"/>
    </edge>
    <edge id=":1327210671_13" function="internal">
        <lane id=":1327210671_13_0" index="0" disallow="pedestrian tram rail_urban rail rail_electric rail_fast ship container cable_car subway aircraft wheelchair scooter drone" speed="7.86" length="11.12" shape="305.42,424.58 302.03,424.66 299.15,422.88 296.78,419.23"/>
    </edge>
    <edge id=":1327210671_3" function="internal">
        <lane id=":1327210671_3_0" index="0" disallow="pedestrian tram rail_urban rail rail_electric rail_fast ship container cable_car subway aircraft wheelchair scooter drone" speed="6.34" length="9.64" shape="299.68,417.89 301.16,420.16 302.95,421.27 305.06,421.22 307.49,420.01"/>
    </edge>
    <edge id=":1327210671_4" function="internal">
        <lane id=":1327210671_4_0" index="0" disallow="pedestrian tram rail_urban rail rail_electric rail_fast ship container cable_car subway aircraft wheelchair scooter drone" speed="13.89" length="18.46" shape="299.68,417.89 301.86,422.88 302.91,426.50 303.24,430.27 303.26,435.74"/>
    </edge>
    <edge id=":1327210671_5" function="internal">
        <lane id=":1327210671_5_0" index="0" disallow="pedestrian tram rail_urban rail rail_electric rail_fast ship container cable_car subway aircraft wheelchair scooter drone" speed="8.56" length="16.96" shape="299.68,417.89 300.83,422.07 300.15,425.68 297.62,428.71 293.25,431.15"/>
    </edge>
    <edge id=":1327210671_6" function="internal">
        <lane id=":1327210671_6_0" index="0" disallow="pedestrian tram rail_urban rail rail_electric rail_fast ship container cable_car subway aircraft wheelchair scooter drone" speed="7.18" length="7.28" shape="292.04,428.19 295.14,426.49 296.96,424.43 297.18,423.46"/>
    </edge>
    <edge id=":1327210671_7" function="internal">
        <lane id=":1327210671_7_0" index="0" disallow="pedestrian tram rail_urban rail rail_electric rail_fast ship container cable_car subway aircraft wheelchair scooter drone" speed="13.89" length="17.54" shape="292.04,428.19 296.86,426.22 300.11,424.73 303.18,422.93 307.49,420.01"/>
    </edge>
    <edge id=":1327210671_8" function="internal">
        <lane id=":1327210671_8_0" index="0" disallow="pedestrian tram rail_urban rail rail_electric rail_fast ship container cable_car subway aircraft wheelchair scooter drone" speed="7.79" length="4.90" shape="292.04,428.19 296.79,426.98"/>
    </edge>
    <edge id=":1327210671_14" function="internal">
        <lane id=":1327210671_14_0" index="0" disallow="pedestrian tram rail_urban rail rail_electric rail_fast ship container cable_car subway aircraft wheelchair scooter drone" speed="7.18" length="4.35" shape="297.18,423.46 297.51,422.01 296.78,419.23"/>
    </edge>
    <edge id=":1327210671_15" function="internal">
        <lane id=":1327210671_15_0" index="0" disallow="pedestrian tram rail_urban rail rail_electric rail_fast ship container cable_car subway aircraft wheelchair scooter drone" speed="7.79" length="12.45" shape="296.79,426.98 296.95,426.94 300.46,427.79 302.56,430.72 303.26,435.74"/>
    </edge>
    <edge id=":1327210671_9" function="internal">
        <lane id=":1327210671_9_0" index="0" disallow="pedestrian tram rail_urban rail rail_electric rail_fast ship container cable_car subway aircraft wheelchair scooter drone" speed="6.21" length="10.53" shape="300.06,435.73 299.64,432.69 298.36,430.91 296.23,430.40 293.25,431.15"/>
    </edge>
    <edge id=":1327210671_10" function="internal">
        <lane id=":1327210671_10_0" index="0" disallow="pedestrian tram rail_urban rail rail_electric rail_fast ship container cable_car subway aircraft wheelchair scooter drone" speed="13.89" length="17.07" shape="300.06,435.73 300.05,430.68 299.75,427.19 298.78,423.85 296.78,419.23"/>
    </edge>
    <edge id=":1327210671_11" function="internal">
        <lane id=":1327210671_11_0" index="0" disallow="pedestrian tram rail_urban rail rail_electric rail_fast ship container cable_car subway aircraft wheelchair scooter drone" speed="12.09" length="18.10" shape="300.06,435.73 300.53,430.78 301.92,426.51 304.24,422.92 307.49,420.01"/>
    </edge>
    <edge id=":1327210671_c0" function="crossing" crossingEdges="420331825#4 -420331825#4">
        <lane id=":1327210671_c0_0" index="0" allow="pedestrian" speed="2.78" length="6.40" width="4.00" shape="304.93,419.84 308.58,425.10" outlineShape="306.57,418.70 310.22,423.96 308.58,425.31 307.33,426.81 306.93,426.24 303.29,420.98 302.45,419.04 302.56,419.15 303.41,419.57 304.37,419.64 305.42,419.35"/>
    </edge>
    <edge id=":1327210671_c1" function="crossing" crossingEdges="601902513#0 -601902513#0">
        <lane id=":1327210671_c1_0" index="0" allow="pedestrian" speed="2.78" length="6.40" width="4.00" shape="296.17,421.72 301.98,419.03" outlineShape="295.33,419.91 301.14,417.22 301.80,418.36 302.56,419.15 303.41,419.57 304.37,419.64 304.52,419.60 302.82,420.85 297.01,423.54 295.02,424.24 295.37,423.80 295.80,422.61 295.78,421.31"/>
    </edge>
    <edge id=":1327210671_c2" function="crossing" crossingEdges="-420331825#3 420331825#3">
        <lane id=":1327210671_c2_0" index="0" allow="pedestrian" speed="2.78" length="6.40" width="4.00" shape="295.71,431.88 293.29,425.95" outlineShape="293.86,432.63 291.44,426.71 293.19,425.85 294.50,424.88 294.84,424.46 295.14,425.20 297.56,431.12 297.95,433.17 297.31,432.47 296.42,432.14 295.26,432.20"/>
    </edge>
    <edge id=":1327210671_c3" function="crossing" crossingEdges="-381447833#1 381447833#1">
        <lane id=":1327210671_c3_0" index="0" allow="pedestrian" speed="2.78" length="6.40" width="4.00" shape="304.86,433.74 298.46,433.73" outlineShape="304.86,435.74 298.46,435.73 298.33,434.26 297.95,433.17 297.31,432.47 296.42,432.14 298.46,431.73 304.86,431.74 305.29,431.74 305.01,433.17"/>
    </edge>
    <edge id=":1327210671_w0" function="walkingarea">
        <lane id=":1327210671_w0_0" index="0" allow="pedestrian" speed="2.78" length="7.94" width="4.00" shape="304.86,435.74 306.86,435.74 311.36,425.60 310.22,423.96 308.58,425.31 307.25,426.91 306.20,428.76 305.46,430.84 305.01,433.17"/>
    </edge>
    <edge id=":1327210671_w1" function="walkingarea">
        <lane id=":1327210671_w1_0" index="0" allow="pedestrian" speed="2.78" length="3.34" width="4.00" shape="306.57,418.70 305.43,417.05 302.95,416.38 301.14,417.22 301.80,418.36 302.56,419.15 303.41,419.57 304.37,419.64 305.42,419.35"/>
    </edge>
    <edge id=":1327210671_w2" function="walkingarea">
        <lane id=":1327210671_w2_0" index="0" allow="pedestrian" speed="2.78" length="4.71" width="4.00" shape="295.33,419.91 293.51,420.75 290.68,424.86 291.44,426.71 293.19,425.85 294.50,424.88 295.37,423.80 295.80,422.61 295.78,421.31"/>
    </edge>
    <edge id=":1327210671_w3" function="walkingarea">
        <lane id=":1327210671_w3_0" index="0" allow="pedestrian" speed="2.78" length="3.36" width="4.00" shape="293.86,432.63 294.61,434.49 296.46,435.73 298.46,435.73 298.33,434.26 297.95,433.17 297.31,432.47 296.42,432.14 295.26,432.20"/>
    </edge>
    <edge id=":1327210672_0" function="internal">
        <lane id=":1327210672_0_0" index="0" disallow="tram rail_urban rail rail_electric rail_fast ship container cable_car subway aircraft wheelchair scooter drone" speed="27.78" length="14.31" shape="315.90,366.55 310.49,353.35"/>
        <lane id=":1327210672_0_1" index="1" disallow="tram rail_urban rail rail_electric rail_fast ship container cable_car subway aircraft wheelchair scooter drone" speed="27.78" length="14.31" shape="318.88,365.37 313.44,352.11"/>
    </edge>
    <edge id=":1327210672_2" function="internal">
        <lane id=":1327210672_2_0" index="0" disallow="pedestrian tram rail_urban rail rail_electric rail_fast ship container cable_car subway aircraft wheelchair scooter drone" speed="8.79" length="3.51" shape="318.88,365.37 318.21,361.93"/>
    </edge>
    <edge id=":1327210672_8" function="internal">
        <lane id=":1327210672_8_0" index="0" disallow="pedestrian tram rail_urban rail rail_electric rail_fast ship container cable_car subway aircraft wheelchair scooter drone" speed="8.79" length="11.80" shape="318.21,361.93 319.03,358.71 321.34,355.72 325.13,352.94"/>
    </edge>
    <edge id=":1327210672_3" function="internal">
        <lane id=":1327210672_3_0" index="0" disallow="pedestrian tram rail_urban rail rail_electric rail_fast ship container cable_car subway aircraft wheelchair scooter drone" speed="6.64" length="8.35" shape="326.75,355.71 325.16,357.02 324.31,358.68 324.20,360.68 324.83,363.02"/>
    </edge>
    <edge id=":1327210672_4" function="internal">
        <lane id=":1327210672_4_0" index="0" disallow="pedestrian tram rail_urban rail rail_electric rail_fast ship container cable_car subway aircraft wheelchair scooter drone" speed="8.15" length="16.23" shape="326.75,355.71 322.37,357.56 318.69,357.58 315.71,355.76 313.44,352.11"/>
    </edge>
    <edge id=":1327210672_5" function="internal">
        <lane id=":1327210672_5_0" index="0" disallow="pedestrian tram rail_urban rail rail_electric rail_fast ship container cable_car subway aircraft wheelchair scooter drone" speed="5.84" length="7.77" shape="319.34,349.63 320.55,351.85 321.92,353.15 323.45,353.51 325.13,352.94"/>
    </edge>
    <edge id=":1327210672_6" function="internal">
        <lane id=":1327210672_6_0" index="0" disallow="tram rail_urban rail rail_electric rail_fast ship container cable_car subway aircraft wheelchair scooter drone" speed="27.78" length="14.44" shape="319.34,349.63 324.83,363.02"/>
        <lane id=":1327210672_6_1" index="1" disallow="tram rail_urban rail rail_electric rail_fast ship container cable_car subway aircraft wheelchair scooter drone" speed="27.78" length="14.44" shape="316.39,350.87 321.85,364.20"/>
    </edge>
    <edge id=":1327210672_w0" function="walkingarea">
        <lane id=":1327210672_w0_0" index="0" allow="pedestrian" speed="2.78" length="12.69" width="3.20" shape="324.32,351.56 323.31,349.84 320.81,349.01 317.86,350.25 314.91,351.49 311.96,352.73 309.01,353.97 314.41,367.14 317.39,365.96 320.36,364.79 323.34,363.61 326.31,362.43 328.57,358.81 327.56,357.09"/>
    </edge>
    <edge id=":1327210673_0" function="internal">
        <lane id=":1327210673_0_0" index="0" disallow="pedestrian tram rail_urban rail rail_electric rail_fast ship container cable_car subway aircraft wheelchair scooter drone" speed="6.42" length="7.66" shape="239.35,236.53 238.64,234.60 237.48,233.26 235.88,232.49 233.83,232.32"/>
    </edge>
    <edge id=":1327210673_1" function="internal">
        <lane id=":1327210673_1_0" index="0" disallow="pedestrian tram rail_urban rail rail_electric rail_fast ship container cable_car subway aircraft wheelchair scooter drone" speed="8.40" length="11.73" shape="239.35,236.53 239.03,233.31 239.57,230.54 240.98,228.22 243.26,226.34"/>
    </edge>
    <edge id=":1327210673_2" function="internal">
        <lane id=":1327210673_2_0" index="0" disallow="pedestrian tram rail_urban rail rail_electric rail_fast ship container cable_car subway aircraft wheelchair scooter drone" speed="6.93" length="3.55" shape="244.93,229.08 243.47,230.29 242.64,231.72"/>
    </edge>
    <edge id=":1327210673_3" function="internal">
        <lane id=":1327210673_3_0" index="0" disallow="pedestrian tram rail_urban rail rail_electric rail_fast ship container cable_car subway aircraft wheelchair scooter drone" speed="13.89" length="11.78" shape="244.93,229.08 241.92,230.81 239.69,231.72 237.30,232.11 233.83,232.32"/>
    </edge>
    <edge id=":1327210673_6" function="internal">
        <lane id=":1327210673_6_0" index="0" disallow="pedestrian tram rail_urban rail rail_electric rail_fast ship container cable_car subway aircraft wheelchair scooter drone" speed="6.93" length="4.19" shape="242.64,231.72 242.58,231.83 242.24,233.68 242.47,235.85"/>
    </edge>
    <edge id=":1327210673_4" function="internal">
        <lane id=":1327210673_4_0" index="0" disallow="pedestrian tram rail_urban rail rail_electric rail_fast ship container cable_car subway aircraft wheelchair scooter drone" speed="13.89" length="10.17" shape="233.67,229.12 236.67,228.95 238.74,228.61 240.66,227.84 243.26,226.34"/>
    </edge>
    <edge id=":1327210673_5" function="internal">
        <lane id=":1327210673_5_0" index="0" disallow="pedestrian tram rail_urban rail rail_electric rail_fast ship container cable_car subway aircraft wheelchair scooter drone" speed="7.95" length="3.64" shape="233.67,229.12 236.94,229.40 237.26,229.56"/>
    </edge>
    <edge id=":1327210673_7" function="internal">
        <lane id=":1327210673_7_0" index="0" disallow="pedestrian tram rail_urban rail rail_electric rail_fast ship container cable_car subway aircraft wheelchair scooter drone" speed="7.95" length="8.59" shape="237.26,229.56 239.50,230.62 241.34,232.77 242.47,235.85"/>
    </edge>
    <edge id=":1327210673_c0" function="crossing" crossingEdges="-420331831 420331831">
        <lane id=":1327210673_c0_0" index="0" allow="pedestrian" speed="2.78" length="6.40" width="4.00" shape="243.61,233.56 237.36,234.92" outlineShape="244.04,235.51 237.78,236.88 237.69,236.90 237.78,236.88 237.49,235.93 237.05,235.16 236.47,234.57 235.76,234.17 234.90,233.95 236.93,232.97 243.18,231.60 244.82,231.25 244.46,231.68 244.08,232.47 243.88,233.37 243.87,234.39"/>
    </edge>
    <edge id=":1327210673_c1" function="crossing" crossingEdges="-1126339777#1 1126339777#1">
        <lane id=":1327210673_c1_0" index="0" allow="pedestrian" speed="2.78" length="6.40" width="4.00" shape="240.72,226.02 244.05,231.48" outlineShape="242.43,224.98 245.76,230.44 245.02,231.01 244.46,231.68 244.08,232.47 243.88,233.37 243.87,234.39 243.99,235.23 238.88,226.84 239.41,226.65 240.73,225.98"/>
    </edge>
    <edge id=":1327210673_c2" function="crossing" crossingEdges="244215399 -244215399">
        <lane id=":1327210673_c2_0" index="0" allow="pedestrian" speed="2.78" length="6.40" width="4.00" shape="235.91,233.81 235.58,227.42" outlineShape="233.91,233.91 233.59,227.52 235.56,227.42 237.05,227.29 237.58,227.19 237.58,227.32 237.91,233.71 237.49,235.93 237.05,235.16 236.47,234.57 235.76,234.17 234.90,233.95"/>
    </edge>
    <edge id=":1327210673_w0" function="walkingarea">
        <lane id=":1327210673_w0_0" index="0" allow="pedestrian" speed="2.78" length="2.78" width="4.00" shape="233.91,233.91 234.01,235.91 235.83,237.30 237.78,236.88 237.49,235.93 237.05,235.16 236.47,234.57 235.76,234.17 234.90,233.95"/>
    </edge>
    <edge id=":1327210673_w1" function="walkingarea">
        <lane id=":1327210673_w1_0" index="0" allow="pedestrian" speed="2.78" length="3.04" width="4.00" shape="244.04,235.51 245.99,235.08 246.80,232.15 245.76,230.44 245.02,231.01 244.46,231.68 244.08,232.47 243.88,233.37 243.87,234.39"/>
    </edge>
    <edge id=":1327210673_w2" function="walkingarea">
        <lane id=":1327210673_w2_0" index="0" allow="pedestrian" speed="2.78" length="4.94" width="4.00" shape="242.43,224.98 241.38,223.27 240.00,223.83 238.01,224.02 233.49,225.53 233.59,227.52 235.56,227.42 237.05,227.29 238.26,227.06 239.41,226.65 240.73,225.98"/>
    </edge>
    <edge id=":1327210721_w0" function="walkingarea">
        <lane id=":1327210721_w0_0" index="0" allow="pedestrian" speed="2.78" length="8.40" width="2.00" shape="507.39,2.61 508.54,4.25 502.54,-4.25 503.69,-2.61"/>
    </edge>
    <edge id=":1327210743_w0" function="walkingarea">
        <lane id=":1327210743_w0_0" index="0" allow="pedestrian" speed="2.78" length="8.40" width="2.00" shape="8.27,292.83 8.30,290.83 8.16,301.23 8.19,299.23"/>
    </edge>
    <edge id=":1327210813_0" function="internal">
        <lane id=":1327210813_0_0" index="0" disallow="pedestrian tram rail_urban rail rail_electric rail_fast ship container cable_car subway aircraft wheelchair scooter drone" speed="6.41" length="9.34" shape="373.00,110.35 370.92,108.80 368.89,108.35 366.92,108.99 364.99,110.72"/>
    </edge>
    <edge id=":1327210813_1" function="internal">
        <lane id=":1327210813_1_0" index="0" disallow="pedestrian tram rail_urban rail rail_electric rail_fast ship container cable_car subway aircraft wheelchair scooter drone" speed="13.89" length="14.88" shape="373.00,110.35 369.86,107.24 367.65,105.18 365.32,103.25 361.82,100.55"/>
    </edge>
    <edge id=":1327210813_2" function="internal">
        <lane id=":1327210813_2_0" index="0" disallow="pedestrian tram rail_urban rail rail_electric rail_fast ship container cable_car subway aircraft wheelchair scooter drone" speed="7.55" length="13.86" shape="373.00,110.35 371.18,107.47 370.36,103.84 370.74,100.30 372.51,97.66"/>
    </edge>
    <edge id=":1327210813_3" function="internal">
        <lane id=":1327210813_3_0" index="0" disallow="pedestrian tram rail_urban rail rail_electric rail_fast ship container cable_car subway aircraft wheelchair scooter drone" speed="6.40" length="5.48" shape="374.85,99.90 373.21,101.67 372.73,103.62 373.05,104.63"/>
    </edge>
    <edge id=":1327210813_4" function="internal">
        <lane id=":1327210813_4_0" index="0" disallow="pedestrian tram rail_urban rail rail_electric rail_fast ship container cable_car subway aircraft wheelchair scooter drone" speed="13.89" length="14.71" shape="374.85,99.90 371.50,102.66 369.49,104.86 367.69,107.28 364.99,110.72"/>
    </edge>
    <edge id=":1327210813_5" function="internal">
        <lane id=":1327210813_5_0" index="0" disallow="pedestrian tram rail_urban rail rail_electric rail_fast ship container cable_car subway aircraft wheelchair scooter drone" speed="8.91" length="4.12" shape="374.85,99.90 371.42,101.92 371.29,101.95"/>
    </edge>
    <edge id=":1327210813_12" function="internal">
        <lane id=":1327210813_12_0" index="0" disallow="pedestrian tram rail_urban rail rail_electric rail_fast ship container cable_car subway aircraft wheelchair scooter drone" speed="6.40" length="4.15" shape="373.05,104.63 373.41,105.76 375.26,108.09"/>
    </edge>
    <edge id=":1327210813_13" function="internal">