<?xml version="1.0" encoding="UTF-8"?>

<!-- generated on 2026-04-15 00:23:38.880071 by Eclipse SUMO randomTrips.py v1.26.0
<configuration>
    <net-file value="/Users/junlee/Desktop/2026-1/js/result/2026-04-15_00-06-49/sumo_nets/cw_6511/network.net.xml"/>
    <output-trip-file value="/Users/junlee/Desktop/2026-1/js/result/2026-04-15_00-06-49/sumo_nets/cw_6511/routes_seed44.trips.xml"/>
    <route-file value="/Users/junlee/Desktop/2026-1/js/result/2026-04-15_00-06-49/sumo_nets/cw_6511/routes_seed44.rou.xml"/>
    <vehicle-class value="passenger"/>
    <seed value="44"/>
    <end value="1800.0"/>
    <period value="5.165630232090777"/>
</configuration>
-->

<!-- generated on 2026-04-15T00:23:38.860665+09:00 by Eclipse SUMO duarouter 1.26.0
<duarouterConfiguration xmlns:xsi="http://www.w3.org/2001/XMLSchema-instance" xsi:noNamespaceSchemaLocation="http://sumo.dlr.de/xsd/duarouterConfiguration.xsd">

    <input>
        <net-file value="/Users/junlee/Desktop/2026-1/js/result/2026-04-15_00-06-49/sumo_nets/cw_6511/network.net.xml"/>
        <route-files value="/Users/junlee/Desktop/2026-1/js/result/2026-04-15_00-06-49/sumo_nets/cw_6511/routes_seed44.trips.xml"/>
    </input>

    <output>
        <output-file value="/Users/junlee/Desktop/2026-1/js/result/2026-04-15_00-06-49/sumo_nets/cw_6511/routes_seed44.rou.xml"/>
        <alternatives-output value="NUL"/>
    </output>

    <time>
        <begin value="0.0"/>
        <end value="1800.0"/>
    </time>

    <report>
        <no-warnings value="true"/>
        <ignore-errors value="true"/>
        <no-step-log value="true"/>
    </report>

</duarouterConfiguration>
-->

<routes xmlns:xsi="http://www.w3.org/2001/XMLSchema-instance" xsi:noNamespaceSchemaLocation="http://sumo.dlr.de/xsd/routes_file.xsd">
    <vType id="passenger" vClass="passenger"/>
    <vehicle id="0" type="passenger" depart="0.00">
        <route edges="198691062#0 198691062#1 198691072#1 198691092#2 198691092#3"/>
    </vehicle>
    <vehicle id="1" type="passenger" depart="5.17">
        <route edges="775222468#1 775222468#2 -273028084#7"/>
    </vehicle>
    <vehicle id="2" type="passenger" depart="10.33">
        <route edges="-273028084#2 -273028084#1 -273028084#0 -913570918 273024752 781985786#4 781985786#5 781985790#0 781985790#1 -464461060 270279684#1 347237859#2 198691061#0 198691061#1 198691061#2 -198691068 -198691090 -198691062#0"/>
    </vehicle>
    <vehicle id="3" type="passenger" depart="15.50">
        <route edges="-277257944#1 -273028084#5 -273028084#4 -273028084#2 -273028084#1 -273028084#0 -913570918 273024752 781985786#4 781985786#5 781985790#0 781985790#1 -464461060 270279684#1 347237859#2 198691061#0 198691061#1 198691061#2 -198691068 198691092#1 198691091"/>
    </vehicle>
    <vehicle id="4" type="passenger" depart="20.66">
        <route edges="913570918 -464461053#2 -381226323 464461057#1 464461057#2 464461057#3 781985786#2 781985786#3 781985786#4 781985786#5 781985790#0 781985790#1 -464461060 270279684#1 347237859#2 347237859#3"/>
    </vehicle>
    <vehicle id="5" type="passenger" depart="25.83">
        <route edges="198691057#1 198691082#1 198691082#2 198691061#1 198691061#2"/>
    </vehicle>
    <vehicle id="6" type="passenger" depart="30.99">
        <route edges="347237859#1 -270279684#1 464461060 -270279686#1 -270279686#0 620607766#3 775222468#0 -777422408"/>
    </vehicle>
    <vehicle id="7" type="passenger" depart="36.16">
        <route edges="-270279684#1 464461060 -270279686#1 -270279686#0 620607766#3 775222468#0 775222468#1 775222468#2"/>
    </vehicle>
    <vehicle id="8" type="passenger" depart="41.33">
        <route edges="273028084#0 273028084#1 273028084#2 273028084#4 273028084#5 464461063 464461053#1 464461053#2 -913570918 273024752 781985786#4 781985786#5 781985790#0 781985790#1 -270279686#1"/>
    </vehicle>
    <vehicle id="9" type="passenger" depart="46.49">
        <route edges="-270279684#1"/>
    </vehicle>
    <vehicle id="10" type="passenger" depart="51.66">
        <route edges="781985790#0 781985790#1 -270279686#1 -270279686#0"/>
    </vehicle>
    <vehicle id="11" type="passenger" depart="56.82">
        <route edges="273028084#1 273028084#2 273028084#4 273028084#5 464461063 464461053#1 464461053#2 -913570918 273024752 781985786#4 781985786#5 781985790#0 781985790#1 781985790#3 781985790#4"/>
    </vehicle>
    <vehicle id="12" type="passenger" depart="61.99">
        <route edges="198691082#1 198691063#0 347237859#1 -270279684#1 464461060 -270279686#1 -270279686#0 620607766#3 775222468#0 775222468#1 775222468#2 -273028084#7 -273028084#6 -273028084#5 -273028084#4 -273028084#2 -273028084#1 -273028084#0 -913570918 273024752 781985786#4"/>
    </vehicle>
    <vehicle id="13" type="passenger" depart="67.15">
        <route edges="277257944#1 -775222468#3 -273028084#7 -273028084#6 -273028084#5 -273028084#4 -273028084#2 -273028084#1 -273028084#0 -913570918 273024752 781985786#4 781985786#5 781985786#6 1109231376 620607766#0 620607766#1 620607766#2 620607766#3"/>
    </vehicle>
    <vehicle id="14" type="passenger" depart="72.32">
        <route edges="273028084#5 273028084#6 273028084#7 -775222468#2 -775222468#1 -777422408"/>
    </vehicle>
    <vehicle id="15" type="passenger" depart="77.48">
        <route edges="620607766#2 620607766#3 775222468#0 775222468#1 775222468#2 -273028084#7 -273028084#6 464461063 464461053#1 464461053#2 273028084#0 273028084#1 273028084#2 273028084#4 273028084#5"/>
    </vehicle>
    <vehicle id="16" type="passenger" depart="82.65">
        <route edges="270279686#0 270279686#1 -464461060 270279684#1 347237859#2 198691061#0 198691082#3 198691092#3"/>
    </vehicle>
    <vehicle id="17" type="passenger" depart="87.82">
        <route edges="-464461060 270279684#1 347237859#2 198691061#0 198691061#1 198691071#0"/>
    </vehicle>
    <vehicle id="18" type="passenger" depart="92.98">
        <route edges="1109231376 620607766#0 620607766#1 620607766#2 620607766#3"/>
    </vehicle>
    <vehicle id="19" type="passenger" depart="98.15">
        <route edges="-277257944#1 -273028084#5 -273028084#4 -273028084#2 -273028084#1 -273028084#0 -464461053#2"/>
    </vehicle>
    <vehicle id="20" type="passenger" depart="103.31">
        <route edges="273028084#5 464461063 464461053#1 464461053#2 -913570918 273024752 781985786#4 781985786#5 781985790#0 781985790#1 -464461060 270279684#1 347237859#2 198691061#0 198691082#3 198691092#3"/>
    </vehicle>
    <vehicle id="21" type="passenger" depart="108.48">
        <route edges="-464461053#2 -381226323 464461057#1 464461057#2 464461057#3 781985786#2 781985786#3 781985786#4 781985786#5 781985790#0 781985790#1 -270279686#1"/>
    </vehicle>
    <vehicle id="22" type="passenger" depart="113.64">
        <route edges="-913570918 273024752 781985786#4 781985786#5 781985786#6 1109231376 620607766#0 620607766#1 620607766#2 620607766#3 775222468#0 775222468#1 775222468#2"/>
    </vehicle>
    <vehicle id="23" type="passenger" depart="118.81">
        <route edges="273024752 781985786#4 781985786#5 781985790#0 781985790#1 -464461060 270279684#1 347237859#2 198691061#0 198691061#1 -198691091 -198691072#1 -198691072#0"/>
    </vehicle>
    <vehicle id="24" type="passenger" depart="123.98">
        <route edges="273028084#1 273028084#2 273028084#4 273028084#5 273028084#6 273028084#7 775222468#3 -277257944#1 -273028084#5 -273028084#4 -273028084#2 -273028084#1 -273028084#0"/>
    </vehicle>
    <vehicle id="25" type="passenger" depart="129.14">
        <route edges="-381226323 464461057#1 464461057#2 464461057#3 781985786#2 913570919 913570918 273028084#0 273028084#1 273028084#2 273028084#4 273028084#5 273028084#6 273028084#7"/>
    </vehicle>
    <vehicle id="26" type="passenger" depart="134.31">
        <route edges="620607766#2 620607766#3 775222468#0 775222468#1 775222468#2 -273028084#7 -273028084#6 464461063 464461053#1 464461053#2 273028084#0 273028084#1 273028084#2 273028084#4"/>
    </vehicle>
    <vehicle id="27" type="passenger" depart="139.47">
        <route edges="-775222468#3 -273028084#7 -273028084#6 -273028084#5 -273028084#4 -273028084#2 -273028084#1 -273028084#0 -913570918 273024752 781985786#4 781985786#5 781985790#0 781985790#1 -464461060 270279684#1 347237859#2 198691061#0 198691061#1 198691061#2 -198691068 -198691090 -198691055"/>
    </vehicle>
    <vehicle id="28" type="passenger" depart="144.64">
        <route edges="-775222468#3 -273028084#7 -273028084#6 -273028084#5 -273028084#4 -273028084#2 -273028084#1 -273028084#0 -913570918 273024752 781985786#4 781985786#5 781985790#0 781985790#1 -464461060 270279684#1 347237859#2"/>
    </vehicle>
    <vehicle id="29" type="passenger" depart="149.80">
        <route edges="273028084#1 273028084#2 273028084#4 273028084#5 464461063 464461053#1 464461053#2 -913570918 273024752 781985786#4 781985786#5 781985790#0 781985790#1 -270279686#1 -381226321"/>
    </vehicle>
    <vehicle id="30" type="passenger" depart="154.97">
        <route edges="620607766#3 775222468#0 775222468#1"/>
    </vehicle>
    <vehicle id="31" type="passenger" depart="160.13">
        <route edges="-775222468#4 -277257944#1 -273028084#5 -273028084#4 -273028084#2 -273028084#1 -273028084#0 -913570918 273024752 781985786#4 781985786#5 781985790#0 781985790#1 781985790#3"/>
    </vehicle>
    <vehicle id="32" type="passenger" depart="165.30">
        <route edges="270279686#1 -464461060 270279684#1 347237859#2 198691061#0 198691082#3 198691092#3"/>
    </vehicle>
    <vehicle id="33" type="passenger" depart="170.47">
        <route edges="781985786#5 781985786#6 1109231376 620607766#0 620607766#1 620607766#2 620607766#3 775222468#0 775222468#1 775222468#2 -273028084#7 -273028084#6 277257944#1"/>
    </vehicle>
    <vehicle id="34" type="passenger" depart="175.63">
        <route edges="-270279684#1 464461060 -781985790#1 -781985790#0 781985786#6 1109231376 620607766#0 620607766#1 620607766#2 270279686#0 270279686#1 -464461060 270279684#1 347237859#2 198691061#0 198691082#3 198691065"/>
    </vehicle>
    <vehicle id="35" type="passenger" depart="180.80">
        <route edges="273028084#5 464461063 464461053#1 -381226323 464461057#1 464461057#2 464461057#3 781985786#2 781985786#3"/>
    </vehicle>
    <vehicle id="36" type="passenger" depart="185.96">
        <route edges="-270279686#0 620607766#3 775222468#0 775222468#1 775222468#2 -273028084#7 -273028084#6 464461063 464461053#1 -381226323 464461057#1 464461057#2 464461057#3 781985786#2"/>
    </vehicle>
    <vehicle id="37" type="passenger" depart="191.13">
        <route edges="464461057#1 464461057#2 464461057#3 781985786#2 913570919 913570918 -464461053#2 -464461053#1 -464461063"/>
    </vehicle>
    <vehicle id="38" type="passenger" depart="196.29">
        <route edges="-464461063 -273028084#5 -273028084#4 -273028084#2 -273028084#1 -273028084#0 -913570918 273024752 781985786#4 781985786#5 781985790#0 781985790#1 -464461060 270279684#1 347237859#2 347237859#3 347237859#4"/>
    </vehicle>
    <vehicle id="39" type="passenger" depart="201.46">
        <route edges="218915133#0 218915133#1 347237859#0 347237859#1 347237859#2 198691061#0 198691061#1 198691061#2 -198691068 -198691090"/>
    </vehicle>
    <vehicle id="40" type="passenger" depart="206.63">
        <route edges="-775222468#3 -273028084#7 -273028084#6 -273028084#5 -273028084#4 -273028084#2 -273028084#1 -273028084#0 -913570918 273024752 781985786#4 781985786#5 781985790#0 781985790#1 -464461060 270279684#1 347237859#2 198691061#0 198691061#1 198691061#2 198691061#3"/>
    </vehicle>
    <vehicle id="41" type="passenger" depart="211.79">
        <route edges="-273028084#6 -273028084#5 -273028084#4 -273028084#2 -273028084#1 -273028084#0 -913570918 273024752 781985786#4 781985786#5 781985790#0"/>
    </vehicle>
    <vehicle id="42" type="passenger" depart="216.96">
        <route edges="270279686#1 -464461060 270279684#1 347237859#2 198691061#0 198691061#1 198691061#2 -198691068 198691092#1"/>
    </vehicle>
    <vehicle id="43" type="passenger" depart="222.12">
        <route edges="-781985790#3 -270279686#1 -270279686#0 620607766#3 775222468#0 -777422408"/>
    </vehicle>
    <vehicle id="44" type="passenger" depart="227.29">
        <route edges="-270279686#0 620607766#3 775222468#0 775222468#1 775222468#2 -273028084#7 -273028084#6 464461063 464461053#1 -381226323 464461057#1 464461057#2 464461057#3 781985786#2 781985786#3"/>
    </vehicle>
    <vehicle id="45" type="passenger" depart="232.45">
        <route edges="781985790#0 781985790#1 -270279686#1 -270279686#0 620607766#3 775222468#0 775222468#1 775222468#2 -273028084#7 -273028084#6 464461063 464461053#1 464461053#2"/>
    </vehicle>
    <vehicle id="46" type="passenger" depart="237.62">
        <route edges="347237859#0 347237859#1 347237859#2 198691061#0 198691061#1 -198691091 -198691072#1 -198691062#1 198691090 198691068"/>
    </vehicle>
    <vehicle id="47" type="passenger" depart="242.78">
        <route edges="-464461057#2 -464461057#1 381226323 464461053#2 -913570918 273024752 781985786#4 781985786#5 781985790#0 781985790#1 -464461060 270279684#1 347237859#2"/>
    </vehicle>
    <vehicle id="48" type="passenger" depart="247.95">
        <route edges="464461053#0 464461053#1 464461053#2 -913570918 273024752 781985786#4 781985786#5 781985790#0 781985790#1 -464461060 270279684#1 347237859#2 198691061#0 198691061#1 198691061#2 -198691068 -198691090 -198691055"/>
    </vehicle>
    <vehicle id="49" type="passenger" depart="253.12">
        <route edges="-781985790#1 -781985790#0 781985786#6 1109231376 620607766#0 620607766#1 620607766#2 270279686#0 270279686#1 -464461060 270279684#1 347237859#2 198691061#0 198691061#1 -198691091 198691092#2"/>
    </vehicle>
    <vehicle id="50" type="passenger" depart="258.28">
        <route edges="-464461057#1 381226323 -464461053#1 -464461063 -273028084#5 -273028084#4 -273028084#2 -273028084#1"/>
    </vehicle>
    <vehicle id="51" type="passenger" depart="263.45">
        <route edges="-464461053#0 -775222468#4 -277257944#1 -273028084#5 -273028084#4 -273028084#2 -273028084#1 -273028084#0 -913570918 273024752 781985786#4 781985786#5 781985790#0 781985790#1 -464461060 270279684#1 347237859#2 198691061#0 198691061#1 198691061#2 -198691068 -198691090 -198691062#0"/>
    </vehicle>
    <vehicle id="52" type="passenger" depart="268.61">
        <route edges="-273028084#2 -273028084#1 -273028084#0 -913570918 273024752 781985786#4 781985786#5 781985790#0 781985790#1 -464461060 270279684#1 347237859#2 198691061#0"/>
    </vehicle>
    <vehicle id="53" type="passenger" depart="273.78">
        <route edges="-781985790#0 781985786#6 1109231376 620607766#0 620607766#1 620607766#2 620607766#3 775222468#0 775222468#1 775222468#2 -273028084#7 -273028084#6 -273028084#5 -273028084#4 -273028084#2 -273028084#1"/>
    </vehicle>
    <vehicle id="54" type="passenger" depart="278.94">
        <route edges="781985786#2 913570919 913570918 273028084#0 273028084#1 273028084#2 273028084#4 273028084#5"/>
    </vehicle>
    <vehicle id="55" type="passenger" depart="284.11">
        <route edges="277257944#1 -775222468#3 -273028084#7 -273028084#6 -273028084#5 -273028084#4 -273028084#2 -273028084#1 -273028084#0 -913570918 273024752 781985786#4 781985786#5 781985790#0 781985790#1 -464461060 270279684#1 347237859#2"/>
    </vehicle>
    <vehicle id="56" type="passenger" depart="289.28">
        <route edges="-781985790#3 -270279686#1 -270279686#0 620607766#3 775222468#0 775222468#1 775222468#2 -273028084#7 -273028084#6 464461063 464461053#1 464461053#2 273028084#0"/>
    </vehicle>
    <vehicle id="57" type="passenger" depart="294.44">
        <route edges="-781985790#1 -781985790#0 781985786#6 1109231376 620607766#0 620607766#1 620607766#2 620607766#3 775222468#0 775222468#1 775222468#2 -273028084#7 -273028084#6 277257944#1"/>
    </vehicle>
    <vehicle id="58" type="passenger" depart="299.61">
        <route edges="620607766#0 620607766#1 620607766#2 270279686#0 270279686#1 -464461060 270279684#1 347237859#2 198691061#0 198691061#1 198691061#2 -198691068 -198691090 -198691062#0"/>
    </vehicle>
    <vehicle id="59" type="passenger" depart="304.77">
        <route edges="464461060 -270279686#1"/>
    </vehicle>
    <vehicle id="60" type="passenger" depart="309.94">
        <route edges="-198691063#0 198691082#2 198691061#1 198691061#2 -198691068 -198691090"/>
    </vehicle>
    <vehicle id="61" type="passenger" depart="315.10">
        <route edges="218915133#1 347237859#0 347237859#1 -270279684#1 464461060 -270279686#1 -270279686#0 620607766#3 775222468#0 775222468#1 775222468#2 775222468#3 775222468#4"/>
    </vehicle>
    <vehicle id="62" type="passenger" depart="320.27">
        <route edges="781985786#3 781985786#4 781985786#5 781985786#6 1109231376 620607766#0 620607766#1 620607766#2 620607766#3 775222468#0 775222468#1 775222468#2 -273028084#7 -273028084#6 -273028084#5"/>
    </vehicle>
    <vehicle id="63" type="passenger" depart="325.43">
        <route edges="198691063#0 347237859#1 -270279684#1 464461060 -781985790#1 -781985790#0 781985786#6 1109231376 620607766#0 620607766#1 620607766#2 270279686#0 270279686#1 -464461060 270279684#1 781985786#5 781985790#0"/>
    </vehicle>
    <vehicle id="64" type="passenger" depart="330.60">
        <route edges="775222468#4 464461053#0 464461053#1 464461053#2 -913570918 273024752 781985786#4 781985786#5 781985786#6 1109231376 620607766#0 620607766#1 620607766#2 620607766#3 775222468#0"/>
    </vehicle>
    <vehicle id="65" type="passenger" depart="335.77">
        <route edges="-464461063"/>
    </vehicle>
    <vehicle id="66" type="passenger" depart="340.93">
        <route edges="273028084#6 273028084#7 775222468#3 -277257944#1 -273028084#5 -273028084#4 -273028084#2 -273028084#1 -273028084#0 -913570918 273024752 781985786#4 781985786#5 781985786#6 1109231376 620607766#0 620607766#1 620607766#2 620607766#3 775222468#0 775222468#1 775222468#2 -273028084#7"/>
    </vehicle>
    <vehicle id="67" type="passenger" depart="346.10">
        <route edges="-381226323 464461057#1 464461057#2 464461057#3 781985786#2 781985786#3 781985786#4 781985786#5 781985790#0 781985790#1 -464461060 270279684#1 347237859#2 198691061#0 198691061#1 -198691091 -198691072#1 -198691062#1 198691090 198691068"/>
    </vehicle>
    <vehicle id="68" type="passenger" depart="351.26">
        <route edges="777422408 775222468#1 775222468#2 -273028084#7 -273028084#6 -273028084#5 -273028084#4 -273028084#2 -273028084#1 -273028084#0 -913570918 273024752 781985786#4 781985786#5 781985790#0 781985790#1 -464461060 270279684#1 347237859#2 198691061#0 198691061#1 198691061#2 -198691068 -198691090 198691062#1 198691072#1"/>
    </vehicle>
    <vehicle id="69" type="passenger" depart="356.43">
        <route edges="464461057#3 781985786#2 781985786#3 781985786#4 781985786#5 781985790#0 781985790#1 -464461060 270279684#1 347237859#2"/>
    </vehicle>
    <vehicle id="70" type="passenger" depart="361.59">
        <route edges="775222468#3 -277257944#1 -273028084#5 -273028084#4 -273028084#2 -273028084#1 -273028084#0 -913570918 273024752 781985786#4 781985786#5 781985790#0 781985790#1 -464461060 270279684#1 347237859#2 198691061#0 198691082#3"/>
    </vehicle>
    <vehicle id="71" type="passenger" depart="366.76">
        <route edges="198691057#1 198691082#1 198691082#2 198691061#1 198691071#0"/>
    </vehicle>
    <vehicle id="72" type="passenger" depart="371.93">
        <route edges="464461063 464461053#1 -381226323 464461057#1 464461057#2 464461057#3 781985786#2 913570919 913570918 -464461053#2 -464461053#1 -464461063"/>
    </vehicle>
    <vehicle id="73" type="passenger" depart="377.09">
        <route edges="-464461053#1 -464461063 -273028084#5 -273028084#4 -273028084#2 -273028084#1 -273028084#0 -913570918 273024752 781985786#4 781985786#5 781985786#6 1109231376 620607766#0 620607766#1 620607766#2 620607766#3 775222468#0 775222468#1"/>
    </vehicle>
    <vehicle id="74" type="passenger" depart="382.26">
        <route edges="198691082#1 198691063#0 347237859#1 -270279684#1 464461060 -270279686#1 -270279686#0 620607766#3 775222468#0 775222468#1 775222468#2 775222468#3 -277257944#1 273028084#6 273028084#7"/>
    </vehicle>
    <vehicle id="75" type="passenger" depart="387.42">
        <route edges="-381226323 464461057#1 464461057#2 464461057#3 781985786#2 781985786#3 781985786#4 781985786#5 781985790#0 781985790#1 -464461060 270279684#1 347237859#2 198691061#0 198691061#1 198691061#2 -198691068"/>
    </vehicle>
    <vehicle id="76" type="passenger" depart="392.59">
        <route edges="781985786#5 781985790#0 781985790#1 -464461060 270279684#1 347237859#2 198691061#0 198691082#3 198691065"/>
    </vehicle>
    <vehicle id="77" type="passenger" depart="397.75">
        <route edges="273028084#4 273028084#5 464461063 464461053#1 464461053#2 -913570918 273024752 781985786#4 781985786#5 781985790#0 781985790#1 -464461060 270279684#1 347237859#2 198691061#0 198691061#1 198691071#0 322977650"/>
    </vehicle>
    <vehicle id="78" type="passenger" depart="402.92">
        <route edges="775222468#3 -277257944#1 -273028084#5 -273028084#4 -273028084#2 -273028084#1 -273028084#0 -913570918 273024752 781985786#4 -270279684#1 464461060 -781985790#1 -781985790#0"/>
    </vehicle>
    <vehicle id="79" type="passenger" depart="408.08">
        <route edges="270279686#0 270279686#1 -781985790#1 -781985790#0 781985786#6 1109231376 620607766#0 620607766#1 620607766#2 620607766#3 775222468#0 775222468#1 775222468#2 775222468#3 -277257944#1 273028084#6 273028084#7 -775222468#2 -775222468#1"/>
    </vehicle>
    <vehicle id="80" type="passenger" depart="413.25">
        <route edges="273028084#5 464461063 464461053#1 -381226323 464461057#1 464461057#2"/>
    </vehicle>
    <vehicle id="81" type="passenger" depart="418.42">
        <route edges="781985786#5 781985786#6 1109231376 620607766#0 620607766#1 620607766#2 620607766#3 775222468#0 775222468#1 775222468#2 -273028084#7 -273028084#6"/>
    </vehicle>
    <vehicle id="82" type="passenger" depart="423.58">
        <route edges="464461060 -781985790#1 -781985790#0 781985786#6 1109231376 620607766#0 620607766#1 620607766#2 270279686#0 270279686#1 -464461060 270279684#1 347237859#2 198691061#0 198691061#1 198691061#2 -198691068 -198691090 198691062#1 198691072#1"/>
    </vehicle>
    <vehicle id="83" type="passenger" depart="428.75">
        <route edges="781985786#5 781985790#0 781985790#1 -464461060 270279684#1 347237859#2 198691061#0 198691061#1 198691061#2 -198691068 -198691090"/>
    </vehicle>
    <vehicle id="84" type="passenger" depart="433.91">
        <route edges="781985790#0 781985790#1 -464461060 270279684#1 347237859#2 198691061#0 198691061#1 -198691091 -198691072#1 -198691072#0"/>
    </vehicle>
    <vehicle id="85" type="passenger" depart="439.08">
        <route edges="218915133#0 218915133#1 347237859#0 347237859#1 -270279684#1 464461060 -270279686#1 -270279686#0 620607766#3 775222468#0 775222468#1"/>
    </vehicle>
    <vehicle id="86" type="passenger" depart="444.24">
        <route edges="-781985790#4 -781985790#3 -270279686#1 -270279686#0 620607766#3 775222468#0 775222468#1 775222468#2 -273028084#7 -273028084#6 -273028084#5 -273028084#4 -273028084#2 -273028084#1 -273028084#0 -464461053#2"/>
    </vehicle>
    <vehicle id="87" type="passenger" depart="449.41">
        <route edges="775222468#4 464461053#0 464461053#1 464461053#2 -913570918 273024752 781985786#4 781985786#5 781985790#0 781985790#1 -464461060 270279684#1 347237859#2 198691061#0 198691061#1 -198691091 198691092#2"/>
    </vehicle>
    <vehicle id="88" type="passenger" depart="454.58">
        <route edges="-198691071#0 -198691091 -198691072#1 -198691062#1 -198691062#0"/>
    </vehicle>
    <vehicle id="89" type="passenger" depart="459.74">
        <route edges="273028084#4 273028084#5 464461063 464461053#1 464461053#2 -913570918 273024752 781985786#4 781985786#5 781985790#0 781985790#1 -270279686#1"/>
    </vehicle>
    <vehicle id="90" type="passenger" depart="464.91">
        <route edges="464461060"/>
    </vehicle>
    <vehicle id="91" type="passenger" depart="470.07">
        <route edges="273028084#2 273028084#4 273028084#5 464461063 464461053#1 464461053#2 -913570918 273024752 781985786#4 781985786#5 781985786#6 1109231376 620607766#0 620607766#1 620607766#2 270279686#0 270279686#1"/>
    </vehicle>
    <vehicle id="92" type="passenger" depart="475.24">
        <route edges="781985786#3 781985786#4 781985786#5 781985786#6 1109231376 620607766#0 620607766#1 620607766#2 620607766#3 775222468#0 775222468#1 775222468#2 -273028084#7 -273028084#6 464461063 464461053#1 -381226323 464461057#1 464461057#2 464461057#3 781985786#2 913570919 913570918"/>
    </vehicle>
    <vehicle id="93" type="passenger" depart="480.40">
        <route edges="-775222468#3 -273028084#7 -273028084#6 464461063 464461053#1 -381226323 -464461057#0"/>
    </vehicle>
    <vehicle id="94" type="passenger" depart="485.57">
        <route edges="620607766#0 620607766#1 620607766#2 270279686#0 270279686#1 -464461060 270279684#1 347237859#2 198691061#0 198691061#1 -198691091 198691092#2"/>
    </vehicle>
    <vehicle id="95" type="passenger" depart="490.73">
        <route edges="-270279686#0 620607766#3 775222468#0 775222468#1 775222468#2 -273028084#7 -273028084#6 -273028084#5 -273028084#4 -273028084#2 -273028084#1 -273028084#0 -913570918 273024752 781985786#4 781985786#5 781985790#0 781985790#1 -464461060 270279684#1 347237859#2 198691061#0 198691061#1 -198691091 -198691072#1 -198691062#1 198691090"/>
    </vehicle>
    <vehicle id="96" type="passenger" depart="495.90">
        <route edges="-464461053#1 -464461063 -273028084#5 -273028084#4 -273028084#2 -273028084#1 -273028084#0 -913570918 273024752 781985786#4 781985786#5 781985790#0 781985790#1 -464461060 270279684#1 347237859#2 198691061#0 198691061#1 198691061#2 -198691068 -198691090 -198691062#0"/>
    </vehicle>
    <vehicle id="97" type="passenger" depart="501.07">
        <route edges="347237859#1 347237859#2 198691061#0 198691061#1"/>
    </vehicle>
    <vehicle id="98" type="passenger" depart="506.23">
        <route edges="-464461053#1 -464461063 -273028084#5 -273028084#4 -273028084#2 -273028084#1 -273028084#0 -913570918 273024752 781985786#4 781985786#5 781985786#6 1109231376 620607766#0 620607766#1 620607766#2 270279686#0"/>
    </vehicle>
    <vehicle id="99" type="passenger" depart="511.40">
        <route edges="198691063#0 347237859#1 347237859#2 198691061#0 198691061#1 198691061#2 -198691068 -198691090 198691062#1"/>
    </vehicle>
    <vehicle id="100" type="passenger" depart="516.56">
        <route edges="-781985790#4 -781985790#3 -464461060 270279684#1 347237859#2 198691061#0 198691061#1 198691061#2 -198691068"/>
    </vehicle>
    <vehicle id="101" type="passenger" depart="521.73">
        <route edges="-781985790#3 -270279686#1 -270279686#0 620607766#3 775222468#0 775222468#1 775222468#2 775222468#3 -277257944#1 273028084#6"/>
    </vehicle>
    <vehicle id="102" type="passenger" depart="526.89">
        <route edges="-277257944#1 -273028084#5 -273028084#4 -273028084#2 -273028084#1 -273028084#0 -913570918 273024752 781985786#4 781985786#5 781985790#0 781985790#1 -464461060 270279684#1 347237859#2 198691061#0 198691061#1 198691061#2 -198691068"/>
    </vehicle>
    <vehicle id="103" type="passenger" depart="532.06">
        <route edges="464461057#0 381226323"/>
    </vehicle>
    <vehicle id="104" type="passenger" depart="537.23">
        <route edges="273028084#6 273028084#7 775222468#3 -277257944#1 -273028084#5 -273028084#4 -273028084#2 -273028084#1 -273028084#0 -913570918 273024752 781985786#4 781985786#5 781985790#0 781985790#1 781985790#3"/>
    </vehicle>
    <vehicle id="105" type="passenger" depart="542.39">
        <route edges="-781985790#0 781985786#6 1109231376 620607766#0 620607766#1 620607766#2 620607766#3 775222468#0 775222468#1 775222468#2 -273028084#7 -273028084#6 464461063 464461053#1"/>
    </vehicle>
    <vehicle id="106" type="passenger" depart="547.56">
        <route edges="-775222468#5 464461053#0 464461053#1 464461053#2 273028084#0 273028084#1"/>
    </vehicle>
    <vehicle id="107" type="passenger" depart="552.72">
        <route edges="781985786#1 781985786#2 781985786#3 781985786#4 781985786#5 781985790#0 781985790#1 -464461060 270279684#1 347237859#2 198691061#0 198691061#1 198691071#0"/>
    </vehicle>
    <vehicle id="108" type="passenger" depart="557.89">
        <route edges="273028084#0 273028084#1 273028084#2 273028084#4 273028084#5 464461063 464461053#1 -381226323 464461057#1 464461057#2 464461057#3 781985786#2 913570919 913570918"/>
    </vehicle>
    <vehicle id="109" type="passenger" depart="563.05">
        <route edges="-781985790#3 -270279686#1 -270279686#0 620607766#3 775222468#0 775222468#1 775222468#2 775222468#3 775222468#4 464461053#0 -464461063"/>
    </vehicle>
    <vehicle id="110" type="passenger" depart="568.22">
        <route edges="620607766#3 775222468#0 775222468#1 775222468#2 -273028084#7 -273028084#6 -273028084#5 -273028084#4 -273028084#2 -273028084#1 -273028084#0 -913570918 273024752 781985786#4 781985786#5 781985790#0 781985790#1 -464461060 270279684#1 347237859#2 347237859#3 347237859#4"/>
    </vehicle>
    <vehicle id="111" type="passenger" depart="573.38">
        <route edges="781985786#2 781985786#3 781985786#4 781985786#5 781985786#6 1109231376 620607766#0 620607766#1 620607766#2 270279686#0"/>
    </vehicle>
    <vehicle id="112" type="passenger" depart="578.55">
        <route edges="-273028084#6 464461063 464461053#1 -381226323 464461057#1 464461057#2 464461057#3 781985786#2 781985786#3"/>
    </vehicle>
    <vehicle id="113" type="passenger" depart="583.72">
        <route edges="-270279686#0 620607766#3 775222468#0 775222468#1 775222468#2 -273028084#7 -273028084#6 464461063 464461053#1 -381226323 464461057#1 464461057#2 464461057#3 781985786#2"/>