<?xml version="1.0" encoding="UTF-8"?>

<!-- generated on 2026-04-15T00:21:49.607082+09:00 by Eclipse SUMO netconvert 1.26.0
<netconvertConfiguration xmlns:xsi="http://www.w3.org/2001/XMLSchema-instance" xsi:noNamespaceSchemaLocation="http://sumo.dlr.de/xsd/netconvertConfiguration.xsd">

    <input>
        <osm-files value="/Users/junlee/Desktop/2026-1/js/result/2026-04-15_00-06-49/sumo_nets/cw_137963/map.osm"/>
    </input>

    <output>
        <output-file value="/Users/junlee/Desktop/2026-1/js/result/2026-04-15_00-06-49/sumo_nets/cw_137963/network.net.xml"/>
    </output>

    <projection>
        <proj.utm value="true"/>
    </projection>

    <processing>
        <geometry.remove value="true"/>
        <roundabouts.guess value="true"/>
    </processing>

    <tls_building>
        <tls.guess value="true"/>
        <tls.guess-signals value="true"/>
    </tls_building>

    <ramp_guessing>
        <ramps.guess value="true"/>
    </ramp_guessing>

    <edge_removal>
        <keep-edges.by-vclass value="passenger,pedestrian"/>
    </edge_removal>

    <junctions>
        <no-turnarounds value="true"/>
        <junctions.join value="true"/>
    </junctions>

    <pedestrian>
        <sidewalks.guess value="true"/>
        <sidewalks.guess.max-speed value="13.89"/>
        <crossings.guess value="true"/>
    </pedestrian>

    <report>
        <verbose value="true"/>
    </report>

</netconvertConfiguration>
-->

<net version="1.20" junctionCornerDetail="5" walkingareas="true" limitTurnSpeed="5.50" xmlns:xsi="http://www.w3.org/2001/XMLSchema-instance" xsi:noNamespaceSchemaLocation="http://sumo.dlr.de/xsd/net_file.xsd">

    <location netOffset="-324783.12,-4159428.11" convBoundary="0.00,0.00,663.21,621.46" origBoundary="126.638290,37.384663,127.103615,37.610801" projParameter="+proj=utm +zone=52 +ellps=WGS84 +datum=WGS84 +units=m +no_defs"/>

    <type id="highway.footway" priority="1" numLanes="1" speed="2.78" allow="pedestrian" oneway="1" width="2.00"/>
    <type id="highway.pedestrian" priority="1" numLanes="1" speed="2.78" allow="pedestrian" oneway="1" width="2.00"/>
    <type id="highway.residential" priority="3" numLanes="1" speed="13.89" disallow="tram rail_urban rail rail_electric rail_fast ship container cable_car subway aircraft wheelchair scooter drone" oneway="0"/>
    <type id="highway.secondary" priority="11" numLanes="1" speed="27.78" disallow="tram rail_urban rail rail_electric rail_fast ship container cable_car subway aircraft wheelchair scooter drone" oneway="0"/>
    <type id="highway.service" priority="1" numLanes="1" speed="5.56" allow="pedestrian delivery bicycle" oneway="0"/>
    <type id="highway.steps" priority="1" numLanes="1" speed="1.39" allow="pedestrian" oneway="1" width="2.00"/>
    <type id="highway.tertiary" priority="10" numLanes="1" speed="22.22" disallow="tram rail_urban rail rail_electric rail_fast ship container cable_car subway aircraft wheelchair scooter drone" oneway="0"/>

    <edge id=":1327210662_w0" function="walkingarea">
        <lane id=":1327210662_w0_0" index="0" allow="pedestrian" speed="2.78" length="3.20" width="6.40" shape="319.79,41.42 322.99,41.59 316.59,41.25 319.79,41.42"/>
    </edge>
    <edge id=":2376668182_w0" function="walkingarea">
        <lane id=":2376668182_w0_0" index="0" allow="pedestrian" speed="2.78" length="8.40" width="2.00" shape="663.33,363.23 663.42,365.22 662.94,354.84 663.03,356.83"/>
    </edge>
    <edge id=":2376668211_w0" function="walkingarea">
        <lane id=":2376668211_w0_0" index="0" allow="pedestrian" speed="2.78" length="8.40" width="2.00" shape="455.60,32.93 457.58,32.66 447.28,34.08 449.26,33.81"/>
    </edge>
    <edge id=":2376668263_0" function="internal">
        <lane id=":2376668263_0_0" index="0" disallow="pedestrian tram rail_urban rail rail_electric rail_fast ship container cable_car subway aircraft wheelchair scooter drone" speed="7.33" length="8.77" shape="326.51,503.20 324.16,504.04 322.42,505.28 321.29,506.94 320.76,509.01"/>
    </edge>
    <edge id=":2376668263_1" function="internal">
        <lane id=":2376668263_1_0" index="0" disallow="pedestrian tram rail_urban rail rail_electric rail_fast ship container cable_car subway aircraft wheelchair scooter drone" speed="7.32" length="15.23" shape="326.51,503.20 322.81,503.36 320.44,501.76 319.40,498.39 319.70,493.26"/>
    </edge>
    <edge id=":2376668263_2" function="internal">
        <lane id=":2376668263_2_0" index="0" disallow="pedestrian tram rail_urban rail rail_electric rail_fast ship container cable_car subway aircraft wheelchair scooter drone" speed="5.64" length="8.49" shape="322.86,493.77 322.60,496.90 323.00,498.99 324.06,500.06 325.77,500.09"/>
    </edge>
    <edge id=":2376668263_3" function="internal">
        <lane id=":2376668263_3_0" index="0" disallow="pedestrian tram rail_urban rail rail_electric rail_fast ship container cable_car subway aircraft wheelchair scooter drone" speed="8.33" length="15.38" shape="322.86,493.77 320.76,509.01"/>
    </edge>
    <edge id=":2376668263_4" function="internal">
        <lane id=":2376668263_4_0" index="0" disallow="pedestrian tram rail_urban rail rail_electric rail_fast ship container cable_car subway aircraft wheelchair scooter drone" speed="8.33" length="15.58" shape="317.57,508.69 319.70,493.26"/>
    </edge>
    <edge id=":2376668263_5" function="internal">
        <lane id=":2376668263_5_0" index="0" disallow="pedestrian tram rail_urban rail rail_electric rail_fast ship container cable_car subway aircraft wheelchair scooter drone" speed="8.73" length="3.92" shape="317.57,508.69 318.34,505.60 318.74,504.98"/>
    </edge>
    <edge id=":2376668263_6" function="internal">
        <lane id=":2376668263_6_0" index="0" disallow="pedestrian tram rail_urban rail rail_electric rail_fast ship container cable_car subway aircraft wheelchair scooter drone" speed="8.73" length="8.84" shape="318.74,504.98 319.96,503.13 322.44,501.30 325.77,500.09"/>
    </edge>
    <edge id=":2376668263_c0" function="crossing" crossingEdges="229028000#0 -229028000#0">
        <lane id=":2376668263_c0_0" index="0" allow="pedestrian" speed="2.78" length="6.40" width="4.00" shape="323.46,499.00 324.93,505.22" outlineShape="325.38,498.44 326.90,504.86 325.59,505.16 324.51,505.69 323.65,506.36 323.26,506.84 322.99,505.68 321.51,499.46 324.24,497.19 324.28,497.61 324.51,498.22 324.89,498.52"/>
    </edge>
    <edge id=":2376668263_c1" function="crossing" crossingEdges="-420078497#3 420078497#3">
        <lane id=":2376668263_c1_0" index="0" allow="pedestrian" speed="2.78" length="6.40" width="4.00" shape="317.80,494.98 324.12,496.00" outlineShape="318.12,493.01 324.44,494.02 324.25,495.52 324.19,496.71 324.28,497.61 324.46,498.08 317.49,496.96 318.12,493.01"/>
    </edge>
    <edge id=":2376668263_c2" function="crossing" crossingEdges="420078497#4 -420078497#4">
        <lane id=":2376668263_c2_0" index="0" allow="pedestrian" speed="2.78" length="6.40" width="4.00" shape="322.55,507.17 316.18,506.54" outlineShape="322.35,509.16 315.98,508.53 315.88,508.52 315.98,508.53 316.38,504.55 325.07,505.42 324.51,505.69 323.65,506.36 323.00,507.16 322.57,508.10"/>
    </edge>
    <edge id=":2376668263_w0" function="walkingarea">
        <lane id=":2376668263_w0_0" index="0" allow="pedestrian" speed="2.78" length="3.64" width="4.00" shape="322.35,509.16 324.34,509.36 327.34,506.71 326.88,504.76 325.59,505.16 324.51,505.69 323.65,506.36 323.00,507.16 322.57,508.10"/>
    </edge>
    <edge id=":2376668263_w1" function="walkingarea">
        <lane id=":2376668263_w1_0" index="0" allow="pedestrian" speed="2.78" length="3.00" width="4.00" shape="325.40,498.53 324.94,496.59 326.41,494.34 324.44,494.02 324.25,495.52 324.19,496.71 324.28,497.61 324.51,498.22 324.89,498.52"/>
    </edge>
    <edge id=":2376668263_w2" function="walkingarea">
        <lane id=":2376668263_w2_0" index="0" allow="pedestrian" speed="2.78" length="9.89" width="4.00" shape="317.49,496.96 318.12,493.01 316.14,492.69 313.99,508.34 315.98,508.53 316.38,504.55"/>
    </edge>
    <edge id=":2376668320_w0" function="walkingarea">
        <lane id=":2376668320_w0_0" index="0" allow="pedestrian" speed="2.78" length="8.40" width="2.00" shape="283.77,619.79 282.07,618.74 290.93,624.18 289.23,623.13"/>
    </edge>
    <edge id=":2376668330_w0" function="walkingarea">
        <lane id=":2376668330_w0_0" index="0" allow="pedestrian" speed="2.78" length="8.40" width="2.00" shape="663.11,441.49 663.38,443.47 661.94,433.17 662.21,435.15"/>
    </edge>
    <edge id=":2376668336_0" function="internal">
        <lane id=":2376668336_0_0" index="0" disallow="pedestrian tram rail_urban rail rail_electric rail_fast ship container cable_car subway aircraft wheelchair scooter drone" speed="6.33" length="10.11" shape="427.16,400.23 425.99,397.52 424.34,396.06 422.21,395.84 419.59,396.85"/>
    </edge>
    <edge id=":2376668336_1" function="internal">
        <lane id=":2376668336_1_0" index="0" disallow="pedestrian tram rail_urban rail rail_electric rail_fast ship container cable_car subway aircraft wheelchair scooter drone" speed="13.89" length="18.30" shape="427.16,400.23 423.27,382.35"/>
    </edge>
    <edge id=":2376668336_2" function="internal">
        <lane id=":2376668336_2_0" index="0" disallow="pedestrian tram rail_urban rail rail_electric rail_fast ship container cable_car subway aircraft wheelchair scooter drone" speed="8.27" length="17.88" shape="427.16,400.23 426.86,395.76 428.03,390.99 430.49,387.16 434.06,385.49"/>
    </edge>
    <edge id=":2376668336_3" function="internal">
        <lane id=":2376668336_3_0" index="0" disallow="pedestrian tram rail_urban rail rail_electric rail_fast ship container cable_car subway aircraft wheelchair scooter drone" speed="7.56" length="10.67" shape="435.77,388.62 432.28,389.45 430.20,391.56 429.55,394.95 429.65,395.60"/>
    </edge>
    <edge id=":2376668336_4" function="internal">
        <lane id=":2376668336_4_0" index="0" disallow="pedestrian tram rail_urban rail rail_electric rail_fast ship container cable_car subway aircraft wheelchair scooter drone" speed="13.89" length="18.56" shape="435.77,388.62 430.53,389.44 427.24,391.20 424.17,393.72 419.59,396.85"/>
    </edge>
    <edge id=":2376668336_5" function="internal">
        <lane id=":2376668336_5_0" index="0" disallow="pedestrian tram rail_urban rail rail_electric rail_fast ship container cable_car subway aircraft wheelchair scooter drone" speed="8.86" length="4.28" shape="435.77,388.62 431.49,388.44"/>
    </edge>
    <edge id=":2376668336_12" function="internal">
        <lane id=":2376668336_12_0" index="0" disallow="pedestrian tram rail_urban rail rail_electric rail_fast ship container cable_car subway aircraft wheelchair scooter drone" speed="7.56" length="4.07" shape="429.65,395.60 430.31,399.61"/>
    </edge>
    <edge id=":2376668336_13" function="internal">
        <lane id=":2376668336_13_0" index="0" disallow="pedestrian tram rail_urban rail rail_electric rail_fast ship container cable_car subway aircraft wheelchair scooter drone" speed="8.86" length="10.97" shape="431.49,388.44 430.88,388.41 427.16,387.30 424.62,385.27 423.27,382.35"/>
    </edge>
    <edge id=":2376668336_6" function="internal">
        <lane id=":2376668336_6_0" index="0" disallow="pedestrian tram rail_urban rail rail_electric rail_fast ship container cable_car subway aircraft wheelchair scooter drone" speed="7.06" length="9.35" shape="426.39,381.64 427.22,383.44 428.78,384.68 431.05,385.36 434.06,385.49"/>
    </edge>
    <edge id=":2376668336_7" function="internal">
        <lane id=":2376668336_7_0" index="0" disallow="pedestrian tram rail_urban rail rail_electric rail_fast ship container cable_car subway aircraft wheelchair scooter drone" speed="13.89" length="18.39" shape="426.39,381.64 430.31,399.61"/>
    </edge>
    <edge id=":2376668336_8" function="internal">
        <lane id=":2376668336_8_0" index="0" disallow="pedestrian tram rail_urban rail rail_electric rail_fast ship container cable_car subway aircraft wheelchair scooter drone" speed="9.98" length="17.49" shape="426.39,381.64 426.44,385.77 425.11,390.16 422.72,394.09 419.59,396.85"/>
    </edge>
    <edge id=":2376668336_9" function="internal">
        <lane id=":2376668336_9_0" index="0" disallow="pedestrian tram rail_urban rail rail_electric rail_fast ship container cable_car subway aircraft wheelchair scooter drone" speed="8.94" length="9.81" shape="418.00,394.07 420.96,391.84 422.82,389.14 423.49,386.40"/>
    </edge>
    <edge id=":2376668336_10" function="internal">
        <lane id=":2376668336_10_0" index="0" disallow="pedestrian tram rail_urban rail rail_electric rail_fast ship container cable_car subway aircraft wheelchair scooter drone" speed="13.89" length="18.63" shape="418.00,394.07 422.57,390.88 425.58,388.24 428.82,386.37 434.06,385.49"/>
    </edge>
    <edge id=":2376668336_11" function="internal">
        <lane id=":2376668336_11_0" index="0" disallow="pedestrian tram rail_urban rail rail_electric rail_fast ship container cable_car subway aircraft wheelchair scooter drone" speed="7.91" length="3.12" shape="418.00,394.07 420.91,392.95"/>
    </edge>
    <edge id=":2376668336_14" function="internal">
        <lane id=":2376668336_14_0" index="0" disallow="pedestrian tram rail_urban rail rail_electric rail_fast ship container cable_car subway aircraft wheelchair scooter drone" speed="8.94" length="4.08" shape="423.49,386.40 423.59,385.97 423.27,382.35"/>
    </edge>
    <edge id=":2376668336_15" function="internal">
        <lane id=":2376668336_15_0" index="0" disallow="pedestrian tram rail_urban rail rail_electric rail_fast ship container cable_car subway aircraft wheelchair scooter drone" speed="7.91" length="13.33" shape="420.91,392.95 422.26,392.43 425.73,392.80 428.41,395.20 430.31,399.61"/>
    </edge>
    <edge id=":2376668336_c0" function="crossing" crossingEdges="229027999#2 -229027999#2">
        <lane id=":2376668336_c0_0" index="0" allow="pedestrian" speed="2.78" length="6.40" width="4.00" shape="431.32,397.26 425.08,398.73" outlineShape="431.87,399.18 425.45,400.70 425.11,399.29 424.46,398.31 423.66,397.72 422.72,397.51 424.62,396.78 430.86,395.31 431.78,399.21 431.91,399.38 433.83,398.85 437.21,392.16 437.13,390.16 435.77,389.74 433.96,390.55 432.56,391.34 431.64,392.60 431.22,394.33 431.25,395.22"/>
    </edge>
    <edge id=":2376668336_c1" function="crossing" crossingEdges="-229028024#4 229028024#4">
        <lane id=":2376668336_c1_0" index="0" allow="pedestrian" speed="2.78" length="6.59" width="4.00" shape="431.99,383.98 433.85,390.31" outlineShape="433.91,383.42 435.77,389.74 433.96,390.55 432.56,391.34 432.21,391.82 429.71,383.32 430.92,383.71 432.32,383.89"/>
    </edge>
    <edge id=":2376668336_c2" function="crossing" crossingEdges="-229027999#1 229027999#1">
        <lane id=":2376668336_c2_0" index="0" allow="pedestrian" speed="2.78" length="6.40" width="4.00" shape="422.15,384.65 428.39,383.24" outlineShape="421.71,382.70 427.96,381.29 428.30,382.15 428.91,382.84 429.78,383.36 430.92,383.71 428.83,385.19 422.59,386.60 421.86,386.76 422.00,384.80"/>
    </edge>
    <edge id=":2376668336_c3" function="crossing" crossingEdges="-381809123#1 381809123#1">
        <lane id=":2376668336_c3_0" index="0" allow="pedestrian" speed="2.78" length="6.40" width="4.00" shape="422.12,397.25 418.94,391.69" outlineShape="420.38,398.24 417.21,392.68 417.16,392.60 417.21,392.69 418.99,391.46 420.33,390.09 420.68,390.70 423.86,396.26 424.46,398.31 423.66,397.72 422.72,397.51 421.62,397.68"/>
    </edge>
    <edge id=":2376668336_w0" function="walkingarea">
        <lane id=":2376668336_w0_0" index="0" allow="pedestrian" speed="2.78" length="3.36" width="4.00" shape="420.38,398.24 421.38,399.98 423.64,401.00 425.56,400.46 425.54,400.68 425.11,399.29 424.46,398.31 423.66,397.72 422.72,397.51 421.62,397.68"/>
    </edge>
    <edge id=":2376668336_w1" function="walkingarea">
        <lane id=":2376668336_w1_0" index="0" allow="pedestrian" speed="2.78" length="6.60" width="4.00" shape="431.78,399.21 431.91,399.38 433.83,398.85 437.21,392.16 437.13,390.16 435.77,389.74 433.96,390.55 432.56,391.34 431.64,392.60 431.22,394.33 431.29,396.53"/>
    </edge>
    <edge id=":2376668336_w2" function="walkingarea">
        <lane id=":2376668336_w2_0" index="0" allow="pedestrian" speed="2.78" length="3.30" width="4.00" shape="433.91,383.42 432.71,383.95 432.62,381.95 429.91,380.85 427.96,381.29 428.30,382.15 428.91,382.84 429.78,383.36 430.92,383.71 432.32,383.89"/>
    </edge>
    <edge id=":2376668336_w3" function="walkingarea">
        <lane id=":2376668336_w3_0" index="0" allow="pedestrian" speed="2.78" length="6.66" width="4.00" shape="421.71,382.70 419.76,383.14 416.21,390.95 417.21,392.69 418.99,391.46 420.37,390.06 421.32,388.48 421.87,386.73 422.00,384.80"/>
    </edge>
    <edge id=":2376672642_0" function="internal">
        <lane id=":2376672642_0_0" index="0" disallow="pedestrian tram rail_urban rail rail_electric rail_fast ship container cable_car subway aircraft wheelchair scooter drone" speed="7.55" length="3.53" shape="316.08,529.35 315.82,527.41 315.19,525.97"/>
    </edge>
    <edge id=":2376672642_1" function="internal">
        <lane id=":2376672642_1_0" index="0" disallow="pedestrian tram rail_urban rail rail_electric rail_fast ship container cable_car subway aircraft wheelchair scooter drone" speed="8.33" length="15.05" shape="316.08,529.35 316.10,524.89 316.25,521.83 316.55,518.79 317.01,514.35"/>
    </edge>
    <edge id=":2376672642_6" function="internal">
        <lane id=":2376672642_6_0" index="0" disallow="pedestrian tram rail_urban rail rail_electric rail_fast ship container cable_car subway aircraft wheelchair scooter drone" speed="7.55" length="4.19" shape="315.19,525.97 315.09,525.73 313.87,524.30 312.17,523.13"/>
    </edge>
    <edge id=":2376672642_2" function="internal">
        <lane id=":2376672642_2_0" index="0" disallow="pedestrian tram rail_urban rail rail_electric rail_fast ship container cable_car subway aircraft wheelchair scooter drone" speed="8.33" length="14.71" shape="320.20,514.66 319.74,519.00 319.45,521.98 319.30,524.96 319.28,529.33"/>
    </edge>
    <edge id=":2376672642_3" function="internal">
        <lane id=":2376672642_3_0" index="0" disallow="pedestrian tram rail_urban rail rail_electric rail_fast ship container cable_car subway aircraft wheelchair scooter drone" speed="7.15" length="5.81" shape="320.20,514.66 319.25,519.75 318.95,520.31"/>
    </edge>
    <edge id=":2376672642_7" function="internal">
        <lane id=":2376672642_7_0" index="0" disallow="pedestrian tram rail_urban rail rail_electric rail_fast ship container cable_car subway aircraft wheelchair scooter drone" speed="7.15" length="8.68" shape="318.95,520.31 317.59,522.85 315.23,523.98 312.17,523.13"/>
    </edge>
    <edge id=":2376672642_4" function="internal">
        <lane id=":2376672642_4_0" index="0" disallow="pedestrian tram rail_urban rail rail_electric rail_fast ship container cable_car subway aircraft wheelchair scooter drone" speed="5.46" length="7.86" shape="313.69,520.31 314.87,520.47 315.82,519.52 316.53,517.48 317.01,514.35"/>
    </edge>
    <edge id=":2376672642_5" function="internal">
        <lane id=":2376672642_5_0" index="0" disallow="pedestrian tram rail_urban rail rail_electric rail_fast ship container cable_car subway aircraft wheelchair scooter drone" speed="8.97" length="11.16" shape="313.69,520.31 316.12,522.00 317.86,524.06 318.91,526.50 319.28,529.33"/>
    </edge>
    <edge id=":2376672642_c0" function="crossing" crossingEdges="420078497#5 -420078497#5">
        <lane id=":2376672642_c0_0" index="0" allow="pedestrian" speed="2.78" length="6.40" width="4.00" shape="320.86,527.31 314.46,527.36" outlineShape="320.88,529.31 314.48,529.36 314.39,528.34 314.13,527.41 313.70,526.57 313.11,525.80 312.62,525.38 320.90,525.31 320.88,526.22"/>
    </edge>
    <edge id=":2376672642_c1" function="crossing" crossingEdges="-420078497#4 420078497#4">
        <lane id=":2376672642_c1_0" index="0" allow="pedestrian" speed="2.78" length="6.40" width="4.00" shape="315.23,516.18 321.59,516.81" outlineShape="315.42,514.19 321.79,514.82 321.89,514.83 321.79,514.82 321.47,517.90 321.37,518.80 315.05,518.17 315.23,517.10 315.32,515.96 315.38,514.92"/>
    </edge>
    <edge id=":2376672642_c2" function="crossing" crossingEdges="229028343#0 -229028343#0">
        <lane id=":2376672642_c2_0" index="0" allow="pedestrian" speed="2.78" length="6.40" width="4.00" shape="313.17,525.49 316.21,519.85" outlineShape="311.41,524.54 314.45,518.91 314.82,518.79 315.07,518.11 317.97,520.80 314.94,526.44 314.22,527.76 314.13,527.41 313.70,526.57 313.11,525.80 312.34,525.13"/>
    </edge>
    <edge id=":2376672642_w0" function="walkingarea">
        <lane id=":2376672642_w0_0" index="0" allow="pedestrian" speed="2.78" length="3.23" width="4.00" shape="311.41,524.54 310.47,526.30 312.48,529.38 314.48,529.36 314.39,528.34 314.13,527.41 313.70,526.57 313.11,525.80 312.34,525.13"/>
    </edge>
    <edge id=":2376672642_w1" function="walkingarea">
        <lane id=":2376672642_w1_0" index="0" allow="pedestrian" speed="2.78" length="9.08" width="4.00" shape="320.88,529.31 322.88,529.30 323.78,515.02 321.79,514.82 321.47,517.90 321.22,520.18 321.05,522.05 320.93,523.93 320.88,526.22"/>
    </edge>
    <edge id=":2376672642_w2" function="walkingarea">
        <lane id=":2376672642_w2_0" index="0" allow="pedestrian" speed="2.78" length="3.36" width="4.00" shape="315.42,514.19 313.43,513.99 315.40,517.15 314.45,518.91 314.82,518.79 315.07,518.11 315.23,517.10 315.32,515.96 315.38,514.92"/>
    </edge>
    <edge id=":2376672645_0" function="internal">
        <lane id=":2376672645_0_0" index="0" disallow="pedestrian tram rail_urban rail rail_electric rail_fast ship container cable_car subway aircraft wheelchair scooter drone" speed="8.33" length="21.40" shape="326.28,465.15 326.11,471.30 325.72,475.83 325.04,480.32 324.04,486.41"/>
    </edge>
    <edge id=":2376672645_1" function="internal">
        <lane id=":2376672645_1_0" index="0" disallow="pedestrian tram rail_urban rail rail_electric rail_fast ship container cable_car subway aircraft wheelchair scooter drone" speed="8.16" length="9.64" shape="326.28,465.15 325.67,473.04 325.13,474.69"/>
    </edge>
    <edge id=":2376672645_2" function="internal">
        <lane id=":2376672645_2_0" index="0" disallow="pedestrian tram rail_urban rail rail_electric rail_fast ship container cable_car subway aircraft wheelchair scooter drone" speed="6.77" length="3.78" shape="326.28,465.15 325.46,468.85"/>
    </edge>
    <edge id=":2376672645_12" function="internal">
        <lane id=":2376672645_12_0" index="0" disallow="pedestrian tram rail_urban rail rail_electric rail_fast ship container cable_car subway aircraft wheelchair scooter drone" speed="8.16" length="10.67" shape="325.13,474.69 324.04,478.03 321.38,480.11 317.70,479.29"/>
    </edge>
    <edge id=":2376672645_13" function="internal">
        <lane id=":2376672645_13_0" index="0" disallow="pedestrian tram rail_urban rail rail_electric rail_fast ship container cable_car subway aircraft wheelchair scooter drone" speed="6.77" length="13.30" shape="325.46,468.85 325.18,470.09 322.54,473.63 319.15,474.76 315.84,472.44"/>
    </edge>
    <edge id=":2376672645_3" function="internal">
        <lane id=":2376672645_3_0" index="0" disallow="pedestrian tram rail_urban rail rail_electric rail_fast ship container cable_car subway aircraft wheelchair scooter drone" speed="5.80" length="12.07" shape="318.47,470.62 320.44,472.70 321.87,472.43 322.75,469.81 323.08,464.84"/>
    </edge>
    <edge id=":2376672645_4" function="internal">
        <lane id=":2376672645_4_0" index="0" disallow="pedestrian tram rail_urban rail rail_electric rail_fast ship container cable_car subway aircraft wheelchair scooter drone" speed="11.11" length="17.48" shape="318.47,470.62 321.53,474.83 323.53,478.00 324.40,481.42 324.04,486.41"/>
    </edge>
    <edge id=":2376672645_5" function="internal">
        <lane id=":2376672645_5_0" index="0" disallow="pedestrian tram rail_urban rail rail_electric rail_fast ship container cable_car subway aircraft wheelchair scooter drone" speed="6.54" length="16.79" shape="318.47,470.62 322.17,476.60 323.28,480.04 321.79,480.94 317.70,479.29"/>
    </edge>
    <edge id=":2376672645_6" function="internal">
        <lane id=":2376672645_6_0" index="0" disallow="pedestrian tram rail_urban rail rail_electric rail_fast ship container cable_car subway aircraft wheelchair scooter drone" speed="4.05" length="5.27" shape="319.23,476.48 315.84,472.44"/>
    </edge>
    <edge id=":2376672645_7" function="internal">
        <lane id=":2376672645_7_0" index="0" disallow="pedestrian tram rail_urban rail rail_electric rail_fast ship container cable_car subway aircraft wheelchair scooter drone" speed="6.81" length="13.72" shape="319.23,476.48 320.86,476.51 322.05,474.58 322.79,470.69 323.08,464.84"/>
    </edge>
    <edge id=":2376672645_8" function="internal">
        <lane id=":2376672645_8_0" index="0" disallow="pedestrian tram rail_urban rail rail_electric rail_fast ship container cable_car subway aircraft wheelchair scooter drone" speed="8.46" length="11.85" shape="319.23,476.48 321.74,478.30 323.38,480.56 324.14,483.26 324.04,486.41"/>
    </edge>
    <edge id=":2376672645_9" function="internal">
        <lane id=":2376672645_9_0" index="0" disallow="pedestrian tram rail_urban rail rail_electric rail_fast ship container cable_car subway aircraft wheelchair scooter drone" speed="7.00" length="3.55" shape="320.88,485.90 320.95,483.80 320.56,482.40"/>
    </edge>
    <edge id=":2376672645_10" function="internal">
        <lane id=":2376672645_10_0" index="0" disallow="pedestrian tram rail_urban rail rail_electric rail_fast ship container cable_car subway aircraft wheelchair scooter drone" speed="11.11" length="11.01" shape="320.88,485.90 321.15,481.64 320.31,478.73 318.51,476.04 318.22,475.66"/>
    </edge>
    <edge id=":2376672645_11" function="internal">
        <lane id=":2376672645_11_0" index="0" disallow="pedestrian tram rail_urban rail rail_electric rail_fast ship container cable_car subway aircraft wheelchair scooter drone" speed="8.33" length="21.21" shape="320.88,485.90 321.88,479.85 322.54,475.42 322.92,470.96 323.08,464.84"/>
    </edge>
    <edge id=":2376672645_14" function="internal">
        <lane id=":2376672645_14_0" index="0" disallow="pedestrian tram rail_urban rail rail_electric rail_fast ship container cable_car subway aircraft wheelchair scooter drone" speed="7.00" length="4.33" shape="320.56,482.40 320.45,482.00 319.36,480.50 317.70,479.29"/>
    </edge>
    <edge id=":2376672645_15" function="internal">
        <lane id=":2376672645_15_0" index="0" disallow="pedestrian tram rail_urban rail rail_electric rail_fast ship container cable_car subway aircraft wheelchair scooter drone" speed="11.11" length="4.00" shape="318.22,475.66 315.84,472.44"/>
    </edge>
    <edge id=":2376672645_c0" function="crossing" crossingEdges="-420078497#2 420078497#2">
        <lane id=":2376672645_c0_0" index="0" allow="pedestrian" speed="2.78" length="6.41" width="4.00" shape="321.46,466.82 327.86,467.17" outlineShape="321.57,464.82 327.97,465.17 327.81,469.17 321.21,468.81 321.26,468.59 321.41,466.97"/>
    </edge>
    <edge id=":2376672645_c1" function="crossing" crossingEdges="-381809117#7 381809117#7">
        <lane id=":2376672645_c1_0" index="0" allow="pedestrian" speed="2.78" length="6.40" width="4.00" shape="315.66,475.00 320.92,471.36" outlineShape="314.52,473.35 319.78,469.71 320.28,470.23 320.69,470.21 320.75,470.11 322.06,473.00 316.79,476.64 314.52,473.35 312.87,474.49 320.94,473.31 320.54,474.05"/>
    </edge>
    <edge id=":2376672645_c2" function="crossing" crossingEdges="-229028334#6 229028334#6">
        <lane id=":2376672645_c2_0" index="0" allow="pedestrian" speed="2.78" length="6.40" width="4.00" shape="318.69,481.65 321.75,476.02" outlineShape="316.89,480.78 319.07,476.76 323.50,476.98 319.07,476.76 323.50,476.98 320.45,482.60 319.36,484.37 319.28,483.60 318.98,482.72 318.49,481.95 317.81,481.27"/>
    </edge>
    <edge id=":2376672645_c3" function="crossing" crossingEdges="420078497#3 -420078497#3">
        <lane id=":2376672645_c3_0" index="0" allow="pedestrian" speed="2.78" length="6.40" width="4.00" shape="325.94,484.68 319.62,483.67" outlineShape="325.62,486.66 319.30,485.64 319.38,484.57 319.28,483.60 318.98,482.72 318.49,481.95 317.91,481.37 326.27,482.71"/>
    </edge>
    <edge id=":2376672645_w0" function="walkingarea">
        <lane id=":2376672645_w0_0" index="0" allow="pedestrian" speed="2.78" length="13.76" width="4.00" shape="325.62,486.66 327.59,486.98 328.31,482.65 328.87,479.22 329.29,476.25 329.59,473.27 329.78,469.81 329.87,465.43 327.87,465.41 327.97,465.17 327.79,469.77 327.62,473.17 327.35,475.96 326.94,478.75 326.37,482.11"/>
    </edge>
    <edge id=":2376672645_w1" function="walkingarea">
        <lane id=":2376672645_w1_0" index="0" allow="pedestrian" speed="2.78" length="3.85" width="4.00" shape="321.57,464.82 321.48,464.58 319.48,464.56 321.43,468.58 319.78,469.71 320.28,470.23 320.69,470.21 321.02,469.67 321.26,468.59 321.41,466.97"/>
    </edge>
    <edge id=":2376672645_w2" function="walkingarea">
        <lane id=":2376672645_w2_0" index="0" allow="pedestrian" speed="2.78" length="5.10" width="4.00" shape="316.79,476.64 314.52,473.35 312.87,474.49 320.94,473.31 319.99,475.07 323.50,476.98"/>
    </edge>
    <edge id=":2376672645_w3" function="walkingarea">
        <lane id=":2376672645_w3_0" index="0" allow="pedestrian" speed="2.78" length="3.11" width="4.00" shape="316.94,480.69 315.98,482.45 317.33,485.33 319.30,485.64 319.38,484.57 319.28,483.60 318.98,482.72 318.49,481.95 317.81,481.27"/>
    </edge>
    <edge id=":2376672647_0" function="internal">