<?xml version="1.0" encoding="UTF-8"?>

<!-- generated on 2026-04-15T00:10:29.961808+09:00 by Eclipse SUMO netconvert 1.26.0
<netconvertConfiguration xmlns:xsi="http://www.w3.org/2001/XMLSchema-instance" xsi:noNamespaceSchemaLocation="http://sumo.dlr.de/xsd/netconvertConfiguration.xsd">

    <input>
        <osm-files value="/Users/junlee/Desktop/2026-1/js/result/2026-04-15_00-06-49/sumo_nets/cw_8430/map.osm"/>
    </input>

    <output>
        <output-file value="/Users/junlee/Desktop/2026-1/js/result/2026-04-15_00-06-49/sumo_nets/cw_8430/network.net.xml"/>
    </output>

    <projection>
        <proj.utm value="true"/>
    </projection>

    <processing>
        <geometry.remove value="true"/>
        <roundabouts.guess value="true"/>
    </processing>

    <tls_building>
        <tls.guess value="true"/>
        <tls.guess-signals value="true"/>
    </tls_building>

    <ramp_guessing>
        <ramps.guess value="true"/>
    </ramp_guessing>

    <edge_removal>
        <keep-edges.by-vclass value="passenger,pedestrian"/>
    </edge_removal>

    <junctions>
        <no-turnarounds value="true"/>
        <junctions.join value="true"/>
    </junctions>

    <pedestrian>
        <sidewalks.guess value="true"/>
        <sidewalks.guess.max-speed value="13.89"/>
        <crossings.guess value="true"/>
    </pedestrian>

    <report>
        <verbose value="true"/>
    </report>

</netconvertConfiguration>
-->

<net version="1.20" junctionCornerDetail="5" walkingareas="true" limitTurnSpeed="5.50" xmlns:xsi="http://www.w3.org/2001/XMLSchema-instance" xsi:noNamespaceSchemaLocation="http://sumo.dlr.de/xsd/net_file.xsd">

    <location netOffset="-323703.81,-4157491.39" convBoundary="0.00,0.00,1061.05,1387.72" origBoundary="126.957820,37.539820,127.029336,37.586491" projParameter="+proj=utm +zone=52 +ellps=WGS84 +datum=WGS84 +units=m +no_defs"/>

    <type id="highway.footway" priority="1" numLanes="1" speed="2.78" allow="pedestrian" oneway="1" width="2.00"/>
    <type id="highway.primary" priority="12" numLanes="2" speed="27.78" disallow="tram rail_urban rail rail_electric rail_fast ship container cable_car subway aircraft wheelchair scooter drone" oneway="0"/>
    <type id="highway.primary_link" priority="7" numLanes="1" speed="22.22" disallow="tram rail_urban rail rail_electric rail_fast ship container cable_car subway aircraft wheelchair scooter drone" oneway="0"/>
    <type id="highway.residential" priority="3" numLanes="1" speed="13.89" disallow="tram rail_urban rail rail_electric rail_fast ship container cable_car subway aircraft wheelchair scooter drone" oneway="0"/>
    <type id="highway.secondary" priority="11" numLanes="1" speed="27.78" disallow="tram rail_urban rail rail_electric rail_fast ship container cable_car subway aircraft wheelchair scooter drone" oneway="0"/>
    <type id="highway.service" priority="1" numLanes="1" speed="5.56" allow="pedestrian delivery bicycle" oneway="0"/>

    <edge id=":12857535999_0" function="internal">
        <lane id=":12857535999_0_0" index="0" disallow="tram rail_urban rail rail_electric rail_fast ship container cable_car subway aircraft wheelchair scooter drone" speed="27.78" length="0.29" shape="211.44,20.31 211.16,20.21"/>
    </edge>
    <edge id=":12857535999_1" function="internal">
        <lane id=":12857535999_1_0" index="0" disallow="tram rail_urban rail rail_electric rail_fast ship container cable_car subway aircraft wheelchair scooter drone" speed="27.78" length="0.30" shape="212.28,17.21 212.56,17.31"/>
    </edge>
    <edge id=":12857535999_w0" function="walkingarea">
        <lane id=":12857535999_w0_0" index="0" allow="pedestrian" speed="2.78" length="2.24" width="6.40" shape="210.87,21.81 213.13,15.82 212.84,15.71 210.60,21.71"/>
    </edge>
    <edge id=":1326096630_0" function="internal">
        <lane id=":1326096630_0_0" index="0" disallow="pedestrian tram rail_urban rail rail_electric rail_fast ship container cable_car subway aircraft wheelchair scooter drone" speed="6.49" length="9.09" shape="778.88,964.89 777.49,962.82 775.77,961.70 773.73,961.55 771.36,962.34"/>
    </edge>
    <edge id=":1326096630_1" function="internal">
        <lane id=":1326096630_1_0" index="0" disallow="pedestrian tram rail_urban rail rail_electric rail_fast ship container cable_car subway aircraft wheelchair scooter drone" speed="13.89" length="14.48" shape="778.88,964.89 772.53,951.88"/>
    </edge>
    <edge id=":1326096630_2" function="internal">
        <lane id=":1326096630_2_0" index="0" disallow="pedestrian tram rail_urban rail rail_electric rail_fast ship container cable_car subway aircraft wheelchair scooter drone" speed="6.99" length="10.46" shape="778.88,964.89 777.39,961.30 776.80,958.50 777.08,956.49 778.25,955.29"/>
    </edge>
    <edge id=":1326096630_3" function="internal">
        <lane id=":1326096630_3_0" index="0" disallow="pedestrian tram rail_urban rail rail_electric rail_fast ship container cable_car subway aircraft wheelchair scooter drone" speed="13.89" length="9.33" shape="779.69,958.14 771.36,962.34"/>
    </edge>
    <edge id=":1326096630_4" function="internal">
        <lane id=":1326096630_4_0" index="0" disallow="pedestrian tram rail_urban rail rail_electric rail_fast ship container cable_car subway aircraft wheelchair scooter drone" speed="6.91" length="1.69" shape="779.69,958.14 778.02,958.37"/>
    </edge>
    <edge id=":1326096630_7" function="internal">
        <lane id=":1326096630_7_0" index="0" disallow="pedestrian tram rail_urban rail rail_electric rail_fast ship container cable_car subway aircraft wheelchair scooter drone" speed="6.91" length="8.69" shape="778.02,958.37 776.27,957.40 774.44,955.24 772.53,951.88"/>
    </edge>
    <edge id=":1326096630_5" function="internal">
        <lane id=":1326096630_5_0" index="0" disallow="pedestrian tram rail_urban rail rail_electric rail_fast ship container cable_car subway aircraft wheelchair scooter drone" speed="6.57" length="4.86" shape="769.92,959.49 771.99,958.05 773.12,956.30 773.14,956.04"/>
    </edge>
    <edge id=":1326096630_6" function="internal">
        <lane id=":1326096630_6_0" index="0" disallow="pedestrian tram rail_urban rail rail_electric rail_fast ship container cable_car subway aircraft wheelchair scooter drone" speed="13.89" length="9.33" shape="769.92,959.49 778.25,955.29"/>
    </edge>
    <edge id=":1326096630_8" function="internal">
        <lane id=":1326096630_8_0" index="0" disallow="pedestrian tram rail_urban rail rail_electric rail_fast ship container cable_car subway aircraft wheelchair scooter drone" speed="6.57" length="4.29" shape="773.14,956.04 773.30,954.24 772.53,951.88"/>
    </edge>
    <edge id=":1326096630_c0" function="crossing" crossingEdges="117770556#1">
        <lane id=":1326096630_c0_0" index="0" allow="pedestrian" speed="2.78" length="3.20" width="4.00" shape="779.45,962.39 776.57,963.79" outlineShape="780.32,964.20 777.44,965.59 776.80,964.53 776.06,963.77 775.22,963.32 774.28,963.16 773.95,963.21 775.70,961.98 778.58,960.59 779.90,959.96 779.57,960.51 779.45,961.20 779.54,962.05 779.83,963.04"/>
    </edge>
    <edge id=":1326096630_c1" function="crossing" crossingEdges="-420103662#0 420103662#0">
        <lane id=":1326096630_c1_0" index="0" allow="pedestrian" speed="2.78" length="6.40" width="4.00" shape="775.75,954.75 778.62,960.47" outlineShape="777.54,953.86 780.41,959.57 779.89,959.96 779.57,960.51 779.45,961.20 779.54,962.05 779.70,962.59 776.84,961.37 773.96,955.65 774.82,952.60 775.15,953.07 775.74,953.64 776.34,953.96 776.94,954.03"/>
    </edge>
    <edge id=":1326096630_c2" function="crossing" crossingEdges="117770556#2">
        <lane id=":1326096630_c2_0" index="0" allow="pedestrian" speed="2.78" length="3.20" width="4.00" shape="771.98,954.38 774.85,952.97" outlineShape="771.10,952.59 773.97,951.17 774.56,952.24 775.15,953.07 775.74,953.64 776.34,953.96 776.94,954.03 777.54,953.86 775.73,954.76 772.86,956.18 770.84,956.83 771.04,956.62 771.51,955.76 771.68,954.80 771.54,953.74"/>
    </edge>
    <edge id=":1326096630_c3" function="crossing" crossingEdges="420103662#1 -420103662#1">
        <lane id=":1326096630_c3_0" index="0" allow="pedestrian" speed="2.78" length="6.40" width="4.00" shape="773.87,962.87 770.98,957.16" outlineShape="772.08,963.77 769.20,958.06 770.27,957.39 771.04,956.62 771.51,955.76 771.68,954.80 771.64,954.50 772.77,956.26 775.65,961.97 776.29,964.01 776.06,963.77 775.22,963.32 774.28,963.16 773.23,963.32"/>
    </edge>
    <edge id=":1326096630_w0" function="walkingarea">
        <lane id=":1326096630_w0_0" index="0" allow="pedestrian" speed="2.78" length="3.30" width="4.00" shape="772.08,963.77 772.98,965.56 775.64,966.46 777.44,965.59 776.80,964.53 776.06,963.77 775.22,963.32 774.28,963.16 773.23,963.32"/>
    </edge>
    <edge id=":1326096630_w1" function="walkingarea">
        <lane id=":1326096630_w1_0" index="0" allow="pedestrian" speed="2.78" length="2.24" width="4.00" shape="780.32,964.20 781.31,961.36 780.41,959.57 779.89,959.96 779.57,960.51 779.45,961.20 779.54,962.05 779.83,963.04"/>
    </edge>
    <edge id=":1326096630_w2" function="walkingarea">
        <lane id=":1326096630_w2_0" index="0" allow="pedestrian" speed="2.78" length="2.16" width="4.00" shape="777.54,953.86 776.64,952.07 773.97,951.17 774.56,952.24 775.15,953.07 775.74,953.64 776.34,953.96 776.94,954.03"/>
    </edge>
    <edge id=":1326096630_w3" function="walkingarea">
        <lane id=":1326096630_w3_0" index="0" allow="pedestrian" speed="2.78" length="3.38" width="4.00" shape="771.10,952.59 769.30,953.47 768.30,956.27 769.20,958.06 770.27,957.39 771.04,956.62 771.51,955.76 771.68,954.80 771.54,953.74"/>
    </edge>
    <edge id=":1936511298_0" function="internal">
        <lane id=":1936511298_0_0" index="0" disallow="pedestrian tram rail_urban rail rail_electric rail_fast ship container cable_car subway aircraft wheelchair scooter drone" speed="8.26" length="23.92" shape="679.62,596.36 686.39,596.52 691.20,599.40 693.14,604.24 691.31,610.30"/>
        <lane id=":1936511298_0_1" index="1" disallow="pedestrian tram rail_urban rail rail_electric rail_fast ship container cable_car subway aircraft wheelchair scooter drone" speed="8.26" length="23.89" shape="679.62,596.36 687.29,595.75 691.34,597.58 691.78,601.87 688.60,608.60"/>
    </edge>
    <edge id=":1936511298_2" function="internal">
        <lane id=":1936511298_2_0" index="0" disallow="pedestrian tram rail_urban rail rail_electric rail_fast ship container cable_car subway aircraft wheelchair scooter drone" speed="5.58" length="10.04" shape="683.17,605.20 684.67,602.17 684.68,600.21 683.20,599.32 680.23,599.50"/>
    </edge>
    <edge id=":1936511298_w0" function="walkingarea">
        <lane id=":1936511298_w0_0" index="0" allow="pedestrian" speed="2.78" length="11.33" width="3.20" shape="680.54,601.07 680.92,603.04 681.82,604.35 684.53,606.05 687.24,607.75 689.95,609.45 692.66,611.15 678.94,592.83 679.32,594.79"/>
    </edge>
    <edge id=":1936511305_0" function="internal">
        <lane id=":1936511305_0_0" index="0" disallow="tram rail_urban rail rail_electric rail_fast ship container cable_car subway aircraft wheelchair scooter drone" speed="5.58" length="9.35" shape="578.37,801.83 576.79,799.44 575.17,798.63 573.52,799.38 571.85,801.71"/>
    </edge>
    <edge id=":1936511305_1" function="internal">
        <lane id=":1936511305_1_0" index="0" disallow="tram rail_urban rail rail_electric rail_fast ship container cable_car subway aircraft wheelchair scooter drone" speed="27.78" length="27.53" shape="578.37,801.83 566.38,777.04"/>
    </edge>
    <edge id=":1936511305_2" function="internal">
        <lane id=":1936511305_2_0" index="0" disallow="tram rail_urban rail rail_electric rail_fast ship container cable_car subway aircraft wheelchair scooter drone" speed="13.43" length="25.07" shape="578.37,801.83 575.89,795.30 575.11,789.14 576.02,783.35 578.64,777.93"/>
    </edge>
    <edge id=":1936511305_3" function="internal">
        <lane id=":1936511305_3_0" index="0" disallow="tram rail_urban rail rail_electric rail_fast ship container cable_car subway aircraft wheelchair scooter drone" speed="12.05" length="20.05" shape="583.97,781.46 581.20,786.58 579.82,791.44 579.84,796.05 581.24,800.40"/>
    </edge>
    <edge id=":1936511305_4" function="internal">
        <lane id=":1936511305_4_0" index="0" disallow="tram rail_urban rail rail_electric rail_fast ship container cable_car subway aircraft wheelchair scooter drone" speed="27.78" length="23.74" shape="583.97,781.46 571.85,801.71"/>
        <lane id=":1936511305_4_1" index="1" disallow="tram rail_urban rail rail_electric rail_fast ship container cable_car subway aircraft wheelchair scooter drone" speed="27.78" length="23.74" shape="581.31,779.70 569.03,800.18"/>
    </edge>
    <edge id=":1936511305_6" function="internal">
        <lane id=":1936511305_6_0" index="0" disallow="tram rail_urban rail rail_electric rail_fast ship container cable_car subway aircraft wheelchair scooter drone" speed="8.14" length="3.72" shape="581.31,779.70 578.82,782.46"/>
    </edge>
    <edge id=":1936511305_14" function="internal">
        <lane id=":1936511305_14_0" index="0" disallow="tram rail_urban rail rail_electric rail_fast ship container cable_car subway aircraft wheelchair scooter drone" speed="8.14" length="17.13" shape="578.82,782.46 577.38,784.06 573.58,785.07 569.91,782.73 566.38,777.04"/>
    </edge>
    <edge id=":1936511305_7" function="internal">
        <lane id=":1936511305_7_0" index="0" disallow="tram rail_urban rail rail_electric rail_fast ship container cable_car subway aircraft wheelchair scooter drone" speed="5.64" length="9.27" shape="569.28,775.68 570.79,778.03 572.41,778.90 574.13,778.28 575.97,776.17"/>
    </edge>
    <edge id=":1936511305_8" function="internal">
        <lane id=":1936511305_8_0" index="0" disallow="tram rail_urban rail rail_electric rail_fast ship container cable_car subway aircraft wheelchair scooter drone" speed="27.78" length="27.46" shape="569.28,775.68 581.24,800.40"/>
    </edge>
    <edge id=":1936511305_9" function="internal">
        <lane id=":1936511305_9_0" index="0" disallow="tram rail_urban rail rail_electric rail_fast ship container cable_car subway aircraft wheelchair scooter drone" speed="14.54" length="25.45" shape="569.28,775.68 571.54,782.05 572.25,788.25 571.41,794.29 569.03,800.18"/>
    </edge>
    <edge id=":1936511305_10" function="internal">
        <lane id=":1936511305_10_0" index="0" disallow="tram rail_urban rail rail_electric rail_fast ship container cable_car subway aircraft wheelchair scooter drone" speed="13.24" length="21.01" shape="563.41,797.12 566.09,791.27 567.48,785.98 567.58,781.24 566.38,777.04"/>
    </edge>
    <edge id=":1936511305_11" function="internal">
        <lane id=":1936511305_11_0" index="0" disallow="tram rail_urban rail rail_electric rail_fast ship container cable_car subway aircraft wheelchair scooter drone" speed="27.78" length="24.29" shape="563.41,797.12 575.97,776.17"/>
        <lane id=":1936511305_11_1" index="1" disallow="tram rail_urban rail rail_electric rail_fast ship container cable_car subway aircraft wheelchair scooter drone" speed="27.78" length="24.29" shape="566.22,798.65 578.64,777.93"/>
    </edge>
    <edge id=":1936511305_13" function="internal">
        <lane id=":1936511305_13_0" index="0" disallow="tram rail_urban rail rail_electric rail_fast ship container cable_car subway aircraft wheelchair scooter drone" speed="8.14" length="6.22" shape="566.22,798.65 569.93,793.66"/>
    </edge>
    <edge id=":1936511305_15" function="internal">
        <lane id=":1936511305_15_0" index="0" disallow="tram rail_urban rail rail_electric rail_fast ship container cable_car subway aircraft wheelchair scooter drone" speed="8.14" length="15.36" shape="569.93,793.66 573.67,792.29 577.44,794.54 581.24,800.40"/>
    </edge>
    <edge id=":1936511305_w0" function="walkingarea">
        <lane id=":1936511305_w0_0" index="0" allow="pedestrian" speed="2.78" length="18.59" width="12.80" shape="576.94,802.54 582.67,799.69 581.69,797.09 581.28,794.37 581.44,791.54 582.16,788.59 583.45,785.53 585.31,782.35 574.63,775.28 573.22,776.73 572.55,776.88 571.91,776.64 571.30,776.01 570.72,775.00 564.93,777.73 565.78,780.22 566.09,782.95 565.87,785.93 565.12,789.16 563.83,792.64 562.01,796.36 573.25,802.47 574.51,800.92 575.13,800.73 575.74,800.94 576.34,801.54"/>
    </edge>
    <edge id=":1936511423_w0" function="walkingarea">
        <lane id=":1936511423_w0_0" index="0" allow="pedestrian" speed="2.78" length="3.20" width="6.40" shape="867.63,1387.72 864.64,1388.86 870.62,1386.58 867.63,1387.72"/>
    </edge>
    <edge id=":3681037027_w0" function="walkingarea">
        <lane id=":3681037027_w0_0" index="0" allow="pedestrian" speed="2.78" length="3.20" width="6.40" shape="-0.00,-0.00 0.48,-3.16 -0.48,3.16 0.00,-0.00"/>
    </edge>
    <edge id=":3785139730_w0" function="walkingarea">
        <lane id=":3785139730_w0_0" index="0" allow="pedestrian" speed="2.78" length="3.20" width="6.40" shape="1039.58,749.49 1042.76,749.87 1036.40,749.11 1039.58,749.49"/>
    </edge>
    <edge id=":3785139735_0" function="internal">
        <lane id=":3785139735_0_0" index="0" disallow="pedestrian tram rail_urban rail rail_electric rail_fast ship container cable_car subway aircraft wheelchair scooter drone" speed="13.89" length="8.44" shape="710.68,816.05 709.80,813.71 709.13,812.13 708.37,810.59 707.18,808.38"/>
    </edge>
    <edge id=":3785139735_1" function="internal">
        <lane id=":3785139735_1_0" index="0" allow="delivery bicycle" speed="7.50" length="2.75" shape="710.68,816.05 710.28,813.52 710.33,813.35"/>
    </edge>
    <edge id=":3785139735_6" function="internal">
        <lane id=":3785139735_6_0" index="0" allow="delivery bicycle" speed="7.50" length="8.62" shape="710.33,813.35 711.02,811.21 712.90,809.12 715.92,807.24"/>
    </edge>
    <edge id=":3785139735_2" function="internal">
        <lane id=":3785139735_2_0" index="0" allow="delivery bicycle" speed="5.89" length="6.63" shape="717.34,810.11 715.38,811.26 714.12,812.45 713.55,813.68 713.68,814.94"/>
    </edge>
    <edge id=":3785139735_3" function="internal">
        <lane id=":3785139735_3_0" index="0" allow="delivery bicycle" speed="7.39" length="11.59" shape="717.34,810.11 713.97,811.34 711.16,811.47 708.89,810.48 707.18,808.38"/>
    </edge>
    <edge id=":3785139735_4" function="internal">
        <lane id=":3785139735_4_0" index="0" allow="delivery bicycle" speed="5.74" length="6.60" shape="709.99,806.86 710.89,807.86 712.18,808.26 713.86,808.05 715.92,807.24"/>
    </edge>
    <edge id=":3785139735_5" function="internal">
        <lane id=":3785139735_5_0" index="0" disallow="pedestrian tram rail_urban rail rail_electric rail_fast ship container cable_car subway aircraft wheelchair scooter drone" speed="13.89" length="8.90" shape="709.99,806.86 711.24,809.18 712.05,810.80 712.75,812.47 713.68,814.94"/>
    </edge>
    <edge id=":3785139735_c0" function="crossing" crossingEdges="-920025287#0 920025287#0">
        <lane id=":3785139735_c0_0" index="0" allow="pedestrian" speed="2.78" length="6.40" width="4.00" shape="714.49,812.51 708.48,814.73" outlineShape="715.18,814.39 709.18,816.61 708.57,814.97 708.10,813.76 707.72,812.88 713.73,810.66 713.98,811.23 714.50,812.57"/>
    </edge>
    <edge id=":3785139735_w0" function="walkingarea">
        <lane id=":3785139735_w0_0" index="0" allow="pedestrian" speed="2.78" length="5.51" width="4.00" shape="705.77,809.15 704.01,810.10 707.30,817.30 709.18,816.61 708.57,814.97 708.10,813.76 707.67,812.79 707.21,811.83 706.60,810.68"/>
    </edge>
    <edge id=":3785139735_w1" function="walkingarea">
        <lane id=":3785139735_w1_0" index="0" allow="pedestrian" speed="2.78" length="5.28" width="4.00" shape="715.18,814.39 717.06,813.69 718.05,811.54 716.63,808.67 715.22,805.80 713.16,805.14 711.40,806.10 712.32,807.81 712.99,809.08 713.51,810.14 713.98,811.23 714.50,812.57"/>
    </edge>
    <edge id=":3785139744_0" function="internal">
        <lane id=":3785139744_0_0" index="0" disallow="pedestrian tram rail_urban rail rail_electric rail_fast ship container cable_car subway aircraft wheelchair scooter drone" speed="13.89" length="15.16" shape="732.16,867.91 724.93,854.58"/>
    </edge>
    <edge id=":3785139744_1" function="internal">
        <lane id=":3785139744_1_0" index="0" disallow="pedestrian tram rail_urban rail rail_electric rail_fast ship container cable_car subway aircraft wheelchair scooter drone" speed="7.96" length="13.52" shape="732.16,867.91 730.99,864.21 731.15,861.06 732.63,858.44 735.44,856.37"/>
    </edge>
    <edge id=":3785139744_2" function="internal">
        <lane id=":3785139744_2_0" index="0" disallow="pedestrian tram rail_urban rail rail_electric rail_fast ship container cable_car subway aircraft wheelchair scooter drone" speed="7.90" length="3.59" shape="736.91,859.21 733.52,860.39"/>
    </edge>
    <edge id=":3785139744_6" function="internal">
        <lane id=":3785139744_6_0" index="0" disallow="pedestrian tram rail_urban rail rail_electric rail_fast ship container cable_car subway aircraft wheelchair scooter drone" speed="7.90" length="11.51" shape="733.52,860.39 732.93,860.60 729.61,860.29 726.94,858.29 724.93,854.58"/>
    </edge>
    <edge id=":3785139744_3" function="internal">
        <lane id=":3785139744_3_0" index="0" disallow="pedestrian tram rail_urban rail rail_electric rail_fast ship container cable_car subway aircraft wheelchair scooter drone" speed="6.38" length="9.46" shape="727.93,853.47 729.19,855.79 730.86,857.05 732.94,857.24 735.44,856.37"/>
    </edge>
    <edge id=":3785139744_4" function="internal">
        <lane id=":3785139744_4_0" index="0" disallow="pedestrian tram rail_urban rail rail_electric rail_fast ship container cable_car subway aircraft wheelchair scooter drone" speed="7.40" length="7.05" shape="722.98,864.42 724.88,862.95 725.84,860.82 725.85,858.51"/>
    </edge>
    <edge id=":3785139744_5" function="internal">
        <lane id=":3785139744_5_0" index="0" disallow="pedestrian tram rail_urban rail rail_electric rail_fast ship container cable_car subway aircraft wheelchair scooter drone" speed="13.89" length="14.86" shape="722.98,864.42 726.82,862.28 729.24,860.47 731.65,858.62 735.44,856.37"/>
    </edge>
    <edge id=":3785139744_7" function="internal">
        <lane id=":3785139744_7_0" index="0" disallow="pedestrian tram rail_urban rail rail_electric rail_fast ship container cable_car subway aircraft wheelchair scooter drone" speed="7.40" length="4.05" shape="725.85,858.51 725.86,858.03 724.93,854.58"/>
    </edge>
    <edge id=":3785139744_c0" function="crossing" crossingEdges="117770556#4">
        <lane id=":3785139744_c0_0" index="0" allow="pedestrian" speed="2.78" length="3.20" width="4.00" shape="732.77,865.42 729.87,866.76" outlineShape="733.61,867.24 730.70,868.58 729.87,867.11 728.90,866.05 727.90,865.46 729.03,864.94 731.93,863.60 734.26,863.18 733.78,863.77 733.31,864.89 733.26,866.04"/>
    </edge>
    <edge id=":3785139744_c1" function="crossing" crossingEdges="920025286 381746325#1">
        <lane id=":3785139744_c1_0" index="0" allow="pedestrian" speed="2.78" length="6.40" width="4.00" shape="732.92,855.87 735.87,861.55" outlineShape="734.70,854.95 737.65,860.63 737.69,860.72 735.95,861.64 734.66,862.69 734.38,863.03 734.10,862.48 731.15,856.80 730.54,854.76 730.68,854.92 731.49,855.43 732.43,855.60 733.50,855.44"/>
    </edge>
    <edge id=":3785139744_c2" function="crossing" crossingEdges="920025287#0 -920025287#0">
        <lane id=":3785139744_c2_0" index="0" allow="pedestrian" speed="2.78" length="6.40" width="4.00" shape="724.12,857.01 730.13,854.79" outlineShape="723.43,855.14 729.43,852.92 729.99,854.09 730.68,854.92 731.49,855.43 732.43,855.60 732.64,855.57 730.82,856.67 724.82,858.89 724.31,859.08 724.32,858.76 724.03,857.07"/>
    </edge>
    <edge id=":3785139744_c3" function="crossing" crossingEdges="375125202">
        <lane id=":3785139744_c3_0" index="0" allow="pedestrian" speed="2.78" length="3.20" width="4.00" shape="725.48,864.99 724.08,862.11" outlineShape="723.68,865.86 722.28,862.98 723.27,862.30 723.94,861.37 724.29,860.19 724.30,859.43 725.88,861.24 727.28,864.12 727.94,865.48 727.79,865.40 726.56,865.15 725.18,865.31"/>
    </edge>
    <edge id=":3785139744_w0" function="walkingarea">
        <lane id=":3785139744_w0_0" index="0" allow="pedestrian" speed="2.78" length="4.28" width="4.00" shape="723.68,865.86 728.89,869.41 730.70,868.58 729.87,867.11 728.90,866.05 727.79,865.40 726.56,865.15 725.18,865.31"/>
    </edge>
    <edge id=":3785139744_w1" function="walkingarea">
        <lane id=":3785139744_w1_0" index="0" allow="pedestrian" speed="2.78" length="4.60" width="4.00" shape="733.61,867.24 738.57,862.41 737.65,860.63 735.95,861.64 734.66,862.69 733.78,863.77 733.31,864.89 733.26,866.04"/>
    </edge>
    <edge id=":3785139744_w2" function="walkingarea">
        <lane id=":3785139744_w2_0" index="0" allow="pedestrian" speed="2.78" length="3.33" width="4.00" shape="734.70,854.95 733.78,853.18 731.31,852.22 729.43,852.92 729.99,854.09 730.68,854.92 731.49,855.43 732.43,855.60 733.50,855.44"/>
    </edge>
    <edge id=":3785139744_w3" function="walkingarea">
        <lane id=":3785139744_w3_0" index="0" allow="pedestrian" speed="2.78" length="4.76" width="4.00" shape="723.43,855.14 721.55,855.83 721.41,861.18 722.28,862.98 723.27,862.30 723.94,861.37 724.29,860.19 724.32,858.76 724.03,857.07"/>
    </edge>
    <edge id=":3846532990_0" function="internal">
        <lane id=":3846532990_0_0" index="0" disallow="pedestrian tram rail_urban rail rail_electric rail_fast ship container cable_car subway aircraft wheelchair scooter drone" speed="5.99" length="7.49" shape="521.72,901.52 520.17,901.07 518.68,901.46 517.25,902.67 515.88,904.72"/>
    </edge>
    <edge id=":3846532990_1" function="internal">
        <lane id=":3846532990_1_0" index="0" disallow="pedestrian tram rail_urban rail rail_electric rail_fast ship container cable_car subway aircraft wheelchair scooter drone" speed="8.26" length="15.17" shape="521.72,901.52 518.14,898.94 516.18,896.00 515.84,892.69 517.13,889.01"/>
    </edge>
    <edge id=":3846532990_2" function="internal">
        <lane id=":3846532990_2_0" index="0" disallow="pedestrian tram rail_urban rail rail_electric rail_fast ship container cable_car subway aircraft wheelchair scooter drone" speed="5.99" length="7.49" shape="522.75,892.06 521.78,894.33 521.54,896.19 522.03,897.64 523.24,898.70"/>
    </edge>
    <edge id=":3846532990_3" function="internal">
        <lane id=":3846532990_3_0" index="0" disallow="tram rail_urban rail rail_electric rail_fast ship container cable_car subway aircraft wheelchair scooter drone" speed="27.78" length="14.40" shape="522.75,892.06 515.88,904.72"/>
        <lane id=":3846532990_3_1" index="1" disallow="tram rail_urban rail rail_electric rail_fast ship container cable_car subway aircraft wheelchair scooter drone" speed="27.78" length="14.40" shape="519.94,890.54 513.07,903.19"/>
    </edge>
    <edge id=":3846532990_5" function="internal">
        <lane id=":3846532990_5_0" index="0" disallow="tram rail_urban rail rail_electric rail_fast ship container cable_car subway aircraft wheelchair scooter drone" speed="27.78" length="14.40" shape="507.45,900.13 514.32,887.48"/>
        <lane id=":3846532990_5_1" index="1" disallow="tram rail_urban rail rail_electric rail_fast ship container cable_car subway aircraft wheelchair scooter drone" speed="27.78" length="14.40" shape="510.26,901.66 517.13,889.01"/>
    </edge>
    <edge id=":3846532990_7" function="internal">
        <lane id=":3846532990_7_0" index="0" disallow="pedestrian tram rail_urban rail rail_electric rail_fast ship container cable_car subway aircraft wheelchair scooter drone" speed="8.26" length="3.90" shape="510.26,901.66 512.64,898.58"/>
    </edge>
    <edge id=":3846532990_8" function="internal">
        <lane id=":3846532990_8_0" index="0" disallow="pedestrian tram rail_urban rail rail_electric rail_fast ship container cable_car subway aircraft wheelchair scooter drone" speed="8.26" length="11.27" shape="512.64,898.58 515.60,897.06 519.14,897.10 523.24,898.70"/>
    </edge>
    <edge id=":3846532990_w0" function="walkingarea">
        <lane id=":3846532990_w0_0" index="0" allow="pedestrian" speed="2.78" length="12.42" width="3.20" shape="524.01,897.30 524.96,895.54 524.16,892.83 521.35,891.30 518.54,889.77 515.73,888.25 512.91,886.72 506.04,899.37 508.85,900.90 511.66,902.43 514.47,903.95 517.29,905.48 520.00,904.68 520.95,902.92"/>
    </edge>
    <edge id=":3846532993_0" function="internal">
        <lane id=":3846532993_0_0" index="0" disallow="pedestrian tram rail_urban rail rail_electric rail_fast ship container cable_car subway aircraft wheelchair scooter drone" speed="6.15" length="5.62" shape="554.17,923.40 551.96,921.80 549.93,921.54 549.20,921.97"/>
    </edge>
    <edge id=":3846532993_1" function="internal">
        <lane id=":3846532993_1_0" index="0" disallow="pedestrian tram rail_urban rail rail_electric rail_fast ship container cable_car subway aircraft wheelchair scooter drone" speed="13.89" length="14.67" shape="554.17,923.40 551.02,920.40 548.75,918.48 546.35,916.70 542.84,914.12"/>
    </edge>
    <edge id=":3846532993_6" function="internal">
        <lane id=":3846532993_6_0" index="0" disallow="pedestrian tram rail_urban rail rail_electric rail_fast ship container cable_car subway aircraft wheelchair scooter drone" speed="6.15" length="4.23" shape="549.20,921.97 548.09,922.63 546.44,925.06"/>
    </edge>
    <edge id=":3846532993_2" function="internal">