<?xml version="1.0" encoding="UTF-8"?>

<!-- generated on 2026-04-17 02:59:21.105157 by Eclipse SUMO randomTrips.py v1.26.0
<configuration>
    <net-file value="/Users/junlee/Desktop/2026-1/js/result/tradeoff_pet_top12_seed12_60min_20260417_025716/sumo_nets/cw_5831/network.net.xml"/>
    <output-trip-file value="/Users/junlee/Desktop/2026-1/js/result/tradeoff_pet_top12_seed12_60min_20260417_025716/sumo_nets/cw_5831/routes_seed50.trips.xml"/>
    <route-file value="/Users/junlee/Desktop/2026-1/js/result/tradeoff_pet_top12_seed12_60min_20260417_025716/sumo_nets/cw_5831/routes_seed50.rou.xml"/>
    <vehicle-class value="passenger"/>
    <seed value="50"/>
    <period value="3.3609256240275123"/>
</configuration>
-->

<routes xmlns:xsi="http://www.w3.org/2001/XMLSchema-instance" xsi:noNamespaceSchemaLocation="http://sumo.dlr.de/xsd/routes_file.xsd">
    <vType id="passenger" vClass="passenger"/>
    <trip id="0" depart="0.00" from="516948900#2" to="1206223943" type="passenger"/>
    <trip id="1" depart="3.36" from="615671500#1" to="-788296726#1" type="passenger"/>
    <trip id="2" depart="6.72" from="438360329#0" to="788296726#0" type="passenger"/>
    <trip id="3" depart="10.08" from="-628816140#1" to="183272654" type="passenger"/>
    <trip id="4" depart="13.44" from="-770860548#2" to="770860548#2" type="passenger"/>
    <trip id="5" depart="16.80" from="788296726#1" to="183272654" type="passenger"/>
    <trip id="6" depart="20.17" from="-770860551" to="788296726#0" type="passenger"/>
    <trip id="7" depart="23.53" from="183272574#1" to="615671503" type="passenger"/>
    <trip id="8" depart="26.89" from="585341908#1" to="619147726#1" type="passenger"/>
    <trip id="9" depart="30.25" from="777881147#1" to="78628775#5" type="passenger"/>
    <trip id="10" depart="33.61" from="651818430#1" to="619147727" type="passenger"/>
    <trip id="11" depart="36.97" from="218926711#6" to="-770860565#1" type="passenger"/>
    <trip id="12" depart="40.33" from="1206223943" to="78628775#0" type="passenger"/>
    <trip id="13" depart="43.69" from="619147736" to="-628816136#2" type="passenger"/>
    <trip id="14" depart="47.05" from="777881147#1" to="1206223943" type="passenger"/>
    <trip id="15" depart="50.41" from="585341917" to="619147738#1" type="passenger"/>
    <trip id="16" depart="53.77" from="770860542#1" to="770860549" type="passenger"/>
    <trip id="17" depart="57.14" from="615671500#0" to="788296726#0" type="passenger"/>
    <trip id="18" depart="60.50" from="516948900#2" to="770860565#0" type="passenger"/>
    <trip id="19" depart="63.86" from="651818430#3" to="770860548#1" type="passenger"/>
    <trip id="20" depart="67.22" from="516948900#4" to="-628816136#0" type="passenger"/>
    <trip id="21" depart="70.58" from="198691704#1" to="585341902" type="passenger"/>
    <trip id="22" depart="73.94" from="-176728955#0" to="-176728951" type="passenger"/>
    <trip id="23" depart="77.30" from="788296726#1" to="770860549" type="passenger"/>
    <trip id="24" depart="80.66" from="770860548#1" to="651818430#3" type="passenger"/>
    <trip id="25" depart="84.02" from="-628816140#2" to="-651818430#3" type="passenger"/>
    <trip id="26" depart="87.38" from="198691704#2" to="-788296726#1" type="passenger"/>
    <trip id="27" depart="90.74" from="78628775#4" to="-516948900#8" type="passenger"/>
    <trip id="28" depart="94.11" from="-788296726#1" to="78628775#0" type="passenger"/>
    <trip id="29" depart="97.47" from="218926711#5" to="770860548#2" type="passenger"/>
    <trip id="30" depart="100.83" from="438360329#0" to="218926711#6" type="passenger"/>
    <trip id="31" depart="104.19" from="-176728955#2" to="438360329#1" type="passenger"/>
    <trip id="32" depart="107.55" from="615671500#1" to="-176728951" type="passenger"/>
    <trip id="33" depart="110.91" from="176728955#1" to="198691704#1" type="passenger"/>
    <trip id="34" depart="114.27" from="615671502" to="585341902" type="passenger"/>
    <trip id="35" depart="117.63" from="516948900#2" to="176728955#2" type="passenger"/>
    <trip id="36" depart="120.99" from="218926711#6" to="78628775#0" type="passenger"/>
    <trip id="37" depart="124.35" from="-651818430#1" to="-628816136#0" type="passenger"/>
    <trip id="38" depart="127.72" from="-770860548#3" to="-516948900#2" type="passenger"/>
    <trip id="39" depart="131.08" from="-770860548#1" to="183272574#1" type="passenger"/>
    <trip id="40" depart="134.44" from="-176728955#1" to="585341901#2" type="passenger"/>
    <trip id="41" depart="137.80" from="913233121" to="619147738#1" type="passenger"/>
    <trip id="42" depart="141.16" from="218926711#6" to="585341904#1" type="passenger"/>
    <trip id="43" depart="144.52" from="585341908#1" to="770860548#2" type="passenger"/>
    <trip id="44" depart="147.88" from="183272654" to="218926711#2" type="passenger"/>
    <trip id="45" depart="151.24" from="651818430#3" to="516948900#8" type="passenger"/>
    <trip id="46" depart="154.60" from="1206223940" to="585341902" type="passenger"/>
    <trip id="47" depart="157.96" from="-651818430#2" to="585341909" type="passenger"/>
    <trip id="48" depart="161.32" from="516948900#0" to="516948900#4" type="passenger"/>
    <trip id="49" depart="164.69" from="176728949" to="619147730#0" type="passenger"/>
    <trip id="50" depart="168.05" from="1206223939" to="651818430#1" type="passenger"/>
    <trip id="51" depart="171.41" from="770860548#1" to="615671500#0" type="passenger"/>
    <trip id="52" depart="174.77" from="78628775#4" to="1206223939" type="passenger"/>
    <trip id="53" depart="178.13" from="788296726#1" to="-516948900#2" type="passenger"/>
    <trip id="54" depart="181.49" from="-651818430#1" to="1206223944" type="passenger"/>
    <trip id="55" depart="184.85" from="198691704#2" to="-176728949" type="passenger"/>
    <trip id="56" depart="188.21" from="1206223945" to="78628775#0" type="passenger"/>
    <trip id="57" depart="191.57" from="651818430#2" to="619147730#0" type="passenger"/>
    <trip id="58" depart="194.93" from="78628775#4" to="516948900#8" type="passenger"/>
    <trip id="59" depart="198.29" from="619342756" to="770860565#1" type="passenger"/>
    <trip id="60" depart="201.66" from="516948900#5" to="585341901#1" type="passenger"/>
    <trip id="61" depart="205.02" from="-770860548#2" to="78628775#2" type="passenger"/>
    <trip id="62" depart="208.38" from="183272654" to="-770860552#1" type="passenger"/>
    <trip id="63" depart="211.74" from="-788296726#0" to="651818430#1" type="passenger"/>
    <trip id="64" depart="215.10" from="1206223947" to="619147730#3" type="passenger"/>
    <trip id="65" depart="218.46" from="615671500#1" to="78628775#3" type="passenger"/>
    <trip id="66" depart="221.82" from="651818430#3" to="78628775#4" type="passenger"/>
    <trip id="67" depart="225.18" from="-770860565#0" to="-516948900#0" type="passenger"/>
    <trip id="68" depart="228.54" from="-628816140#1" to="-770860542#1" type="passenger"/>
    <trip id="69" depart="231.90" from="619147736" to="438360329#1" type="passenger"/>
    <trip id="70" depart="235.26" from="1206223940" to="585341901#2" type="passenger"/>
    <trip id="71" depart="238.63" from="-770860565#0" to="218926711#0" type="passenger"/>
    <trip id="72" depart="241.99" from="218926711#0" to="-516948900#3" type="passenger"/>
    <trip id="73" depart="245.35" from="78628775#2" to="770860565#1" type="passenger"/>
    <trip id="74" depart="248.71" from="198566324#0" to="619147726#0" type="passenger"/>
    <trip id="75" depart="252.07" from="-176728955#2" to="218926711#2" type="passenger"/>
    <trip id="76" depart="255.43" from="585341908#0" to="333557072#2" type="passenger"/>
    <trip id="77" depart="258.79" from="-651818430#2" to="516948900#8" type="passenger"/>
    <trip id="78" depart="262.15" from="1206223939" to="619147726#0" type="passenger"/>
    <trip id="79" depart="265.51" from="770860551" to="651818430#2" type="passenger"/>
    <trip id="80" depart="268.87" from="-651818430#2" to="788296726#1" type="passenger"/>
    <trip id="81" depart="272.23" from="438360329#0" to="770860542#1" type="passenger"/>
    <trip id="82" depart="275.60" from="176728949" to="619147730#3" type="passenger"/>
    <trip id="83" depart="278.96" from="218926711#0" to="585341909" type="passenger"/>
    <trip id="84" depart="282.32" from="585341908#0" to="-516948900#0" type="passenger"/>
    <trip id="85" depart="285.68" from="-770860565#1" to="218926711#2" type="passenger"/>
    <trip id="86" depart="289.04" from="183272654" to="218926711#1" type="passenger"/>
    <trip id="87" depart="292.40" from="176728955#0" to="176728955#2" type="passenger"/>
    <trip id="88" depart="295.76" from="438360329#0" to="-770860548#1" type="passenger"/>
    <trip id="89" depart="299.12" from="183272654" to="770860565#1" type="passenger"/>
    <trip id="90" depart="302.48" from="218926711#6" to="516948900#5" type="passenger"/>
    <trip id="91" depart="305.84" from="-176728955#2" to="-770860552#2" type="passenger"/>
    <trip id="92" depart="309.21" from="615671500#0" to="628816140#2" type="passenger"/>
    <trip id="93" depart="312.57" from="176728951" to="770860548#1" type="passenger"/>
    <trip id="94" depart="315.93" from="1206223939" to="919984684" type="passenger"/>
    <trip id="95" depart="319.29" from="516948900#5" to="-176728949" type="passenger"/>
    <trip id="96" depart="322.65" from="619147726#0" to="218926711#1" type="passenger"/>
    <trip id="97" depart="326.01" from="-628816140#2" to="78628775#2" type="passenger"/>
    <trip id="98" depart="329.37" from="218926711#2" to="619147730#3" type="passenger"/>
    <trip id="99" depart="332.73" from="183272654" to="770860565#1" type="passenger"/>
    <trip id="100" depart="336.09" from="585341908#1" to="198691704#1" type="passenger"/>
    <trip id="101" depart="339.45" from="1206223945" to="78628775#0" type="passenger"/>
    <trip id="102" depart="342.81" from="615671502" to="788296726#1" type="passenger"/>
    <trip id="103" depart="346.18" from="-770860549" to="438360329#0" type="passenger"/>
    <trip id="104" depart="349.54" from="619147727" to="788296726#1" type="passenger"/>
    <trip id="105" depart="352.90" from="777881147#1" to="628816140#1" type="passenger"/>
    <trip id="106" depart="356.26" from="183272574#1" to="218926711#1" type="passenger"/>
    <trip id="107" depart="359.62" from="585341904#0" to="919984684" type="passenger"/>
    <trip id="108" depart="362.98" from="615671502" to="218926711#6" type="passenger"/>
    <trip id="109" depart="366.34" from="619147726#0" to="-628816136#1" type="passenger"/>
    <trip id="110" depart="369.70" from="585341901#1" to="615671505#1" type="passenger"/>
    <trip id="111" depart="373.06" from="-516948900#8" to="619147727" type="passenger"/>
    <trip id="112" depart="376.42" from="438360329#1" to="1206223943" type="passenger"/>
    <trip id="113" depart="379.78" from="516948900#2" to="1206223940" type="passenger"/>
    <trip id="114" depart="383.15" from="585341909" to="-628816136#0" type="passenger"/>
    <trip id="115" depart="386.51" from="183272654" to="-516948900#5" type="passenger"/>
    <trip id="116" depart="389.87" from="198691704#1" to="218926711#0" type="passenger"/>
    <trip id="117" depart="393.23" from="-516948900#5" to="-516948900#5" type="passenger"/>
    <trip id="118" depart="396.59" from="289213613#0" to="796927124" type="passenger"/>
    <trip id="119" depart="399.95" from="-651818430#1" to="770860548#1" type="passenger"/>
    <trip id="120" depart="403.31" from="-651818430#3" to="619147738#0" type="passenger"/>
    <trip id="121" depart="406.67" from="777881147#2" to="-770860565#1" type="passenger"/>
    <trip id="122" depart="410.03" from="218926711#6" to="333557072#2" type="passenger"/>
    <trip id="123" depart="413.39" from="333557072#0" to="-770860565#1" type="passenger"/>
    <trip id="124" depart="416.75" from="628816136#0" to="770860548#1" type="passenger"/>
    <trip id="125" depart="420.12" from="619342756" to="218926711#0" type="passenger"/>
    <trip id="126" depart="423.48" from="615671503" to="615671500#1" type="passenger"/>
    <trip id="127" depart="426.84" from="770860552#2" to="585341901#2" type="passenger"/>
    <trip id="128" depart="430.20" from="218926711#0" to="615671505#1" type="passenger"/>
    <trip id="129" depart="433.56" from="628816136#1" to="619147736" type="passenger"/>
    <trip id="130" depart="436.92" from="218926711#1" to="615671500#1" type="passenger"/>
    <trip id="131" depart="440.28" from="78628775#0" to="619147730#0" type="passenger"/>
    <trip id="132" depart="443.64" from="1206223945" to="585341909" type="passenger"/>
    <trip id="133" depart="447.00" from="-628816140#2" to="-651818430#3" type="passenger"/>
    <trip id="134" depart="450.36" from="198691704#1" to="770860542#1" type="passenger"/>
    <trip id="135" depart="453.72" from="770860565#0" to="1206223944" type="passenger"/>
    <trip id="136" depart="457.09" from="777881147#0" to="78628775#0" type="passenger"/>
    <trip id="137" depart="460.45" from="218926711#1" to="218926711#5" type="passenger"/>
    <trip id="138" depart="463.81" from="1206223939" to="-651818430#1" type="passenger"/>
    <trip id="139" depart="467.17" from="619147738#1" to="1206223939" type="passenger"/>
    <trip id="140" depart="470.53" from="585341901#1" to="770860542#1" type="passenger"/>
    <trip id="141" depart="473.89" from="183272574#1" to="651818430#3" type="passenger"/>
    <trip id="142" depart="477.25" from="585341901#2" to="183272654" type="passenger"/>
    <trip id="143" depart="480.61" from="770860565#0" to="770860548#3" type="passenger"/>
    <trip id="144" depart="483.97" from="198566324#0" to="628816136#2" type="passenger"/>
    <trip id="145" depart="487.33" from="218926711#6" to="788296726#1" type="passenger"/>
    <trip id="146" depart="490.70" from="615671503" to="585341902" type="passenger"/>
    <trip id="147" depart="494.06" from="176728949" to="333557072#2" type="passenger"/>
    <trip id="148" depart="497.42" from="796927124" to="218926711#4" type="passenger"/>
    <trip id="149" depart="500.78" from="183272654" to="-516948900#4" type="passenger"/>
    <trip id="150" depart="504.14" from="1206223947" to="438360329#0" type="passenger"/>
    <trip id="151" depart="507.50" from="585341901#2" to="-628816136#2" type="passenger"/>
    <trip id="152" depart="510.86" from="516948900#2" to="919984684" type="passenger"/>
    <trip id="153" depart="514.22" from="333557072#0" to="-770860552#1" type="passenger"/>
    <trip id="154" depart="517.58" from="585341909" to="-516948900#2" type="passenger"/>
    <trip id="155" depart="520.94" from="585341908#1" to="651818430#1" type="passenger"/>
    <trip id="156" depart="524.30" from="628816136#2" to="78628775#5" type="passenger"/>
    <trip id="157" depart="527.67" from="651818430#3" to="585341901#1" type="passenger"/>
    <trip id="158" depart="531.03" from="218926711#1" to="183272713#1" type="passenger"/>
    <trip id="159" depart="534.39" from="438360329#0" to="-770860542#1" type="passenger"/>
    <trip id="160" depart="537.75" from="-516948900#8" to="-788296726#0" type="passenger"/>
    <trip id="161" depart="541.11" from="-628816140#2" to="-516948900#8" type="passenger"/>
    <trip id="162" depart="544.47" from="585341901#1" to="585341901#2" type="passenger"/>
    <trip id="163" depart="547.83" from="-770860548#1" to="585341904#1" type="passenger"/>
    <trip id="164" depart="551.19" from="218926711#0" to="218926711#6" type="passenger"/>
    <trip id="165" depart="554.55" from="619147738#1" to="218926711#5" type="passenger"/>
    <trip id="166" depart="557.91" from="770860548#1" to="78628775#2" type="passenger"/>
    <trip id="167" depart="561.27" from="-770860549" to="-770860548#3" type="passenger"/>
    <trip id="168" depart="564.64" from="218926711#0" to="619147728" type="passenger"/>
    <trip id="169" depart="568.00" from="619147738#1" to="176728955#2" type="passenger"/>
    <trip id="170" depart="571.36" from="628816136#2" to="176728955#2" type="passenger"/>
    <trip id="171" depart="574.72" from="78628775#2" to="1206223943" type="passenger"/>
    <trip id="172" depart="578.08" from="438360329#1" to="1206223939" type="passenger"/>
    <trip id="173" depart="581.44" from="516948900#2" to="516948900#2" type="passenger"/>
    <trip id="174" depart="584.80" from="1206223943" to="615671500#1" type="passenger"/>
    <trip id="175" depart="588.16" from="183272713#0" to="-788296726#0" type="passenger"/>
    <trip id="176" depart="591.52" from="289213613#3" to="176728955#2" type="passenger"/>
    <trip id="177" depart="594.88" from="585341908#1" to="651818430#1" type="passenger"/>
    <trip id="178" depart="598.24" from="585341904#0" to="585341901#1" type="passenger"/>
    <trip id="179" depart="601.61" from="198691704#1" to="619147726#1" type="passenger"/>
    <trip id="180" depart="604.97" from="-176728955#0" to="-176728951" type="passenger"/>
    <trip id="181" depart="608.33" from="628816136#1" to="770860548#2" type="passenger"/>
    <trip id="182" depart="611.69" from="585341904#0" to="-516948900#8" type="passenger"/>
    <trip id="183" depart="615.05" from="333557072#0" to="615671505#0" type="passenger"/>
    <trip id="184" depart="618.41" from="788296726#0" to="770860548#2" type="passenger"/>
    <trip id="185" depart="621.77" from="218926711#4" to="-770860548#2" type="passenger"/>
    <trip id="186" depart="625.13" from="788296726#0" to="796927124" type="passenger"/>
    <trip id="187" depart="628.49" from="770860548#3" to="770860565#0" type="passenger"/>
    <trip id="188" depart="631.85" from="-516948900#8" to="176728955#0" type="passenger"/>
    <trip id="189" depart="635.21" from="78628775#2" to="770860565#1" type="passenger"/>
    <trip id="190" depart="638.58" from="615671502" to="78628775#3" type="passenger"/>
    <trip id="191" depart="641.94" from="777881147#4" to="-770860552#1" type="passenger"/>
    <trip id="192" depart="645.30" from="651818430#2" to="516948900#5" type="passenger"/>
    <trip id="193" depart="648.66" from="-770860542#1" to="585341902" type="passenger"/>
    <trip id="194" depart="652.02" from="619147738#1" to="628816140#1" type="passenger"/>
    <trip id="195" depart="655.38" from="1206223939" to="183272654" type="passenger"/>
    <trip id="196" depart="658.74" from="585341917" to="-770860565#1" type="passenger"/>
    <trip id="197" depart="662.10" from="770860548#1" to="-770860542#1" type="passenger"/>
    <trip id="198" depart="665.46" from="-628816140#2" to="628816136#0" type="passenger"/>
    <trip id="199" depart="668.82" from="516948900#4" to="-788296726#0" type="passenger"/>
    <trip id="200" depart="672.19" from="289213613#0" to="796927124" type="passenger"/>
    <trip id="201" depart="675.55" from="-770860548#3" to="585341909" type="passenger"/>
    <trip id="202" depart="678.91" from="619147738#0" to="770860549" type="passenger"/>
    <trip id="203" depart="682.27" from="585341901#1" to="-770860565#0" type="passenger"/>
    <trip id="204" depart="685.63" from="585341904#0" to="628816140#1" type="passenger"/>
    <trip id="205" depart="688.99" from="218926711#0" to="628816140#2" type="passenger"/>
    <trip id="206" depart="692.35" from="619147738#1" to="-516948900#0" type="passenger"/>
    <trip id="207" depart="695.71" from="-176728955#0" to="-516948900#4" type="passenger"/>
    <trip id="208" depart="699.07" from="788296726#0" to="218926711#4" type="passenger"/>
    <trip id="209" depart="702.43" from="619147738#1" to="-770860565#1" type="passenger"/>
    <trip id="210" depart="705.79" from="78628775#0" to="770860548#3" type="passenger"/>
    <trip id="211" depart="709.16" from="516948900#8" to="78628775#2" type="passenger"/>
    <trip id="212" depart="712.52" from="-516948900#8" to="619147727" type="passenger"/>
    <trip id="213" depart="715.88" from="516948900#4" to="516948900#8" type="passenger"/>
    <trip id="214" depart="719.24" from="1206223940" to="585341904#1" type="passenger"/>
    <trip id="215" depart="722.60" from="619147738#1" to="628816140#1" type="passenger"/>
    <trip id="216" depart="725.96" from="198691704#1" to="-176728951" type="passenger"/>
    <trip id="217" depart="729.32" from="796927124" to="585341904#0" type="passenger"/>
    <trip id="218" depart="732.68" from="628816136#0" to="-516948900#0" type="passenger"/>
    <trip id="219" depart="736.04" from="-770860552#2" to="619147727" type="passenger"/>
    <trip id="220" depart="739.40" from="770860551" to="770860565#1" type="passenger"/>
    <trip id="221" depart="742.76" from="770860548#3" to="183272574#1" type="passenger"/>
    <trip id="222" depart="746.13" from="770860548#1" to="198691704#1" type="passenger"/>
    <trip id="223" depart="749.49" from="585341908#1" to="585341904#0" type="passenger"/>
    <trip id="224" depart="752.85" from="218926711#6" to="1206223940" type="passenger"/>
    <trip id="225" depart="756.21" from="788296726#0" to="585341904#0" type="passenger"/>
    <trip id="226" depart="759.57" from="333557072#0" to="218926711#2" type="passenger"/>
    <trip id="227" depart="762.93" from="651818430#1" to="78628775#5" type="passenger"/>
    <trip id="228" depart="766.29" from="651818430#2" to="1206223943" type="passenger"/>
    <trip id="229" depart="769.65" from="218926711#1" to="585341902" type="passenger"/>
    <trip id="230" depart="773.01" from="628816136#1" to="-516948900#4" type="passenger"/>
    <trip id="231" depart="776.37" from="78628775#4" to="-770860552#1" type="passenger"/>
    <trip id="232" depart="779.73" from="218926711#4" to="-516948900#8" type="passenger"/>
    <trip id="233" depart="783.10" from="-628816140#2" to="183272713#1" type="passenger"/>
    <trip id="234" depart="786.46" from="770860548#2" to="218926711#1" type="passenger"/>
    <trip id="235" depart="789.82" from="78628775#2" to="585341901#1" type="passenger"/>
    <trip id="236" depart="793.18" from="585341904#0" to="-770860548#2" type="passenger"/>
    <trip id="237" depart="796.54" from="-770860542#1" to="796927124" type="passenger"/>
    <trip id="238" depart="799.90" from="78628775#4" to="-628816136#0" type="passenger"/>
    <trip id="239" depart="803.26" from="770860565#0" to="183272713#1" type="passenger"/>
    <trip id="240" depart="806.62" from="770860548#3" to="-651818430#3" type="passenger"/>
    <trip id="241" depart="809.98" from="218926711#6" to="-516948900#8" type="passenger"/>
    <trip id="242" depart="813.34" from="585341908#0" to="-770860548#1" type="passenger"/>
    <trip id="243" depart="816.70" from="78628775#4" to="796927124" type="passenger"/>
    <trip id="244" depart="820.07" from="183272713#1" to="438360329#0" type="passenger"/>
    <trip id="245" depart="823.43" from="-770860565#1" to="1206223944" type="passenger"/>
    <trip id="246" depart="826.79" from="-770860552#2" to="619147738#1" type="passenger"/>
    <trip id="247" depart="830.15" from="619147736" to="-628816136#0" type="passenger"/>
    <trip id="248" depart="833.51" from="333557072#0" to="183272713#0" type="passenger"/>
    <trip id="249" depart="836.87" from="198566324#0" to="770860548#2" type="passenger"/>
    <trip id="250" depart="840.23" from="198691704#1" to="619147726#1" type="passenger"/>
    <trip id="251" depart="843.59" from="585341901#1" to="585341902" type="passenger"/>
    <trip id="252" depart="846.95" from="-788296726#0" to="615671505#0" type="passenger"/>
    <trip id="253" depart="850.31" from="1206223945" to="-770860542#1" type="passenger"/>
    <trip id="254" depart="853.68" from="516948900#2" to="183272574#1" type="passenger"/>
    <trip id="255" depart="857.04" from="-176728955#2" to="796927124" type="passenger"/>
    <trip id="256" depart="860.40" from="183272654" to="333557072#2" type="passenger"/>
    <trip id="257" depart="863.76" from="913233121" to="-628816136#2" type="passenger"/>
    <trip id="258" depart="867.12" from="-651818430#1" to="333557072#2" type="passenger"/>
    <trip id="259" depart="870.48" from="78628775#2" to="651818430#3" type="passenger"/>
    <trip id="260" depart="873.84" from="770860548#1" to="770860548#2" type="passenger"/>
    <trip id="261" depart="877.20" from="777881147#0" to="-651818430#1" type="passenger"/>
    <trip id="262" depart="880.56" from="619147738#1" to="619147727" type="passenger"/>
    <trip id="263" depart="883.92" from="770860548#3" to="-628816136#2" type="passenger"/>
    <trip id="264" depart="887.28" from="585341901#1" to="-516948900#2" type="passenger"/>
    <trip id="265" depart="890.65" from="183272713#1" to="585341904#0" type="passenger"/>
    <trip id="266" depart="894.01" from="628816136#0" to="-770860565#1" type="passenger"/>
    <trip id="267" depart="897.37" from="-770860565#1" to="-770860548#2" type="passenger"/>
    <trip id="268" depart="900.73" from="585341917" to="218926711#5" type="passenger"/>
    <trip id="269" depart="904.09" from="619147736" to="-651818430#2" type="passenger"/>
    <trip id="270" depart="907.45" from="516948900#5" to="-651818430#1" type="passenger"/>
    <trip id="271" depart="910.81" from="-176728955#1" to="615671500#0" type="passenger"/>
    <trip id="272" depart="914.17" from="516948900#8" to="78628775#0" type="passenger"/>
    <trip id="273" depart="917.53" from="585341901#3" to="-651818430#1" type="passenger"/>
    <trip id="274" depart="920.89" from="-770860552#1" to="183272654" type="passenger"/>
    <trip id="275" depart="924.25" from="-770860542#1" to="619147726#0" type="passenger"/>
    <trip id="276" depart="927.62" from="-770860552#2" to="-516948900#8" type="passenger"/>
    <trip id="277" depart="930.98" from="770860552#1" to="78628775#0" type="passenger"/>
    <trip id="278" depart="934.34" from="1206223940" to="218926711#2" type="passenger"/>
    <trip id="279" depart="937.70" from="516948900#4" to="619147730#3" type="passenger"/>
    <trip id="280" depart="941.06" from="777881147#4" to="198691704#1" type="passenger"/>
    <trip id="281" depart="944.42" from="628816136#1" to="-770860548#2" type="passenger"/>
    <trip id="282" depart="947.78" from="-770860549" to="619147727" type="passenger"/>
    <trip id="283" depart="951.14" from="-770860565#0" to="619147730#0" type="passenger"/>
    <trip id="284" depart="954.50" from="218926711#0" to="-770860542#1" type="passenger"/>
    <trip id="285" depart="957.86" from="1206223947" to="919984684" type="passenger"/>
    <trip id="286" depart="961.22" from="176728955#0" to="-770860548#1" type="passenger"/>
    <trip id="287" depart="964.59" from="619147738#0" to="78628775#4" type="passenger"/>
    <trip id="288" depart="967.95" from="619147736" to="-770860542#1" type="passenger"/>
    <trip id="289" depart="971.31" from="-628816140#1" to="-770860551" type="passenger"/>
    <trip id="290" depart="974.67" from="788296726#1" to="218926711#1" type="passenger"/>
    <trip id="291" depart="978.03" from="-770860551" to="615671500#1" type="passenger"/>
    <trip id="292" depart="981.39" from="516948900#3" to="585341902" type="passenger"/>
    <trip id="293" depart="984.75" from="-770860548#4" to="770860542#1" type="passenger"/>
    <trip id="294" depart="988.11" from="585341901#2" to="770860551" type="passenger"/>
    <trip id="295" depart="991.47" from="78628775#3" to="619147736" type="passenger"/>
    <trip id="296" depart="994.83" from="615671503" to="619147738#1" type="passenger"/>
    <trip id="297" depart="998.19" from="619147738#0" to="-770860565#0" type="passenger"/>
    <trip id="298" depart="1001.56" from="516948900#8" to="619147726#1" type="passenger"/>
    <trip id="299" depart="1004.92" from="78628775#0" to="-651818430#3" type="passenger"/>
    <trip id="300" depart="1008.28" from="585341908#0" to="1206223944" type="passenger"/>
    <trip id="301" depart="1011.64" from="176728949" to="615671500#0" type="passenger"/>
    <trip id="302" depart="1015.00" from="619147727" to="770860548#2" type="passenger"/>
    <trip id="303" depart="1018.36" from="788296726#0" to="438360329#0" type="passenger"/>
    <trip id="304" depart="1021.72" from="183272713#0" to="176728955#1" type="passenger"/>
    <trip id="305" depart="1025.08" from="777881147#2" to="333557072#2" type="passenger"/>
    <trip id="306" depart="1028.44" from="770860552#2" to="770860548#3" type="passenger"/>
    <trip id="307" depart="1031.80" from="516948900#2" to="78628775#2" type="passenger"/>
    <trip id="308" depart="1035.17" from="770860548#3" to="-516948900#8" type="passenger"/>
    <trip id="309" depart="1038.53" from="585341904#0" to="628816140#2" type="passenger"/>
    <trip id="310" depart="1041.89" from="615671500#1" to="-516948900#0" type="passenger"/>
    <trip id="311" depart="1045.25" from="585341901#1" to="78628775#2" type="passenger"/>
    <trip id="312" depart="1048.61" from="-770860551" to="218926711#2" type="passenger"/>
    <trip id="313" depart="1051.97" from="333557072#2" to="628816136#1" type="passenger"/>
    <trip id="314" depart="1055.33" from="770860552#2" to="628816136#1" type="passenger"/>
    <trip id="315" depart="1058.69" from="-770860565#0" to="615671503" type="passenger"/>
    <trip id="316" depart="1062.05" from="615671502" to="-770860552#1" type="passenger"/>
    <trip id="317" depart="1065.41" from="183272574#1" to="770860548#4" type="passenger"/>
    <trip id="318" depart="1068.77" from="198691704#2" to="585341901#1" type="passenger"/>
    <trip id="319" depart="1072.14" from="770860548#3" to="218926711#4" type="passenger"/>
    <trip id="320" depart="1075.50" from="516948900#4" to="-516948900#5" type="passenger"/>
    <trip id="321" depart="1078.86" from="585341908#1" to="-770860552#2" type="passenger"/>
    <trip id="322" depart="1082.22" from="516948900#4" to="770860551" type="passenger"/>
    <trip id="323" depart="1085.58" from="770860548#2" to="788296726#0" type="passenger"/>
    <trip id="324" depart="1088.94" from="628816136#1" to="628816136#2" type="passenger"/>