<?xml version="1.0" encoding="UTF-8"?>

<!-- generated on 2026-04-17 02:59:21.964152 by Eclipse SUMO randomTrips.py v1.26.0
<configuration>
    <net-file value="/Users/junlee/Desktop/2026-1/js/result/tradeoff_pet_top12_seed12_60min_20260417_025716/sumo_nets/cw_5831/network.net.xml"/>
    <output-trip-file value="/Users/junlee/Desktop/2026-1/js/result/tradeoff_pet_top12_seed12_60min_20260417_025716/sumo_nets/cw_5831/routes_seed51.trips.xml"/>
    <route-file value="/Users/junlee/Desktop/2026-1/js/result/tradeoff_pet_top12_seed12_60min_20260417_025716/sumo_nets/cw_5831/routes_seed51.rou.xml"/>
    <vehicle-class value="passenger"/>
    <seed value="51"/>
    <period value="3.666562810614806"/>
</configuration>
-->

<routes xmlns:xsi="http://www.w3.org/2001/XMLSchema-instance" xsi:noNamespaceSchemaLocation="http://sumo.dlr.de/xsd/routes_file.xsd">
    <vType id="passenger" vClass="passenger"/>
    <trip id="0" depart="0.00" from="1206223939" to="585341901#2" type="passenger"/>
    <trip id="1" depart="3.67" from="-770860548#3" to="770860548#2" type="passenger"/>
    <trip id="2" depart="7.33" from="777881147#4" to="218926711#5" type="passenger"/>
    <trip id="3" depart="11.00" from="788296726#0" to="628816136#0" type="passenger"/>
    <trip id="4" depart="14.67" from="585341901#2" to="619147726#0" type="passenger"/>
    <trip id="5" depart="18.33" from="585341904#1" to="218926711#0" type="passenger"/>
    <trip id="6" depart="22.00" from="913233121" to="218926711#6" type="passenger"/>
    <trip id="7" depart="25.67" from="796927124" to="770860549" type="passenger"/>
    <trip id="8" depart="29.33" from="438360329#1" to="770860548#1" type="passenger"/>
    <trip id="9" depart="33.00" from="-770860549" to="615671505#1" type="passenger"/>
    <trip id="10" depart="36.67" from="198691704#1" to="651818430#1" type="passenger"/>
    <trip id="11" depart="40.33" from="777881147#4" to="628816140#2" type="passenger"/>
    <trip id="12" depart="44.00" from="-770860552#1" to="628816140#1" type="passenger"/>
    <trip id="13" depart="47.67" from="289213613#0" to="770860548#3" type="passenger"/>
    <trip id="14" depart="51.33" from="796927124" to="770860548#2" type="passenger"/>
    <trip id="15" depart="55.00" from="770860548#1" to="770860548#1" type="passenger"/>
    <trip id="16" depart="58.67" from="-176728955#1" to="438360329#0" type="passenger"/>
    <trip id="17" depart="62.33" from="218926711#4" to="-770860552#1" type="passenger"/>
    <trip id="18" depart="66.00" from="-770860549" to="198691704#2" type="passenger"/>
    <trip id="19" depart="69.66" from="628816136#0" to="619147728" type="passenger"/>
    <trip id="20" depart="73.33" from="788296726#1" to="770860548#3" type="passenger"/>
    <trip id="21" depart="77.00" from="777881147#4" to="619147727" type="passenger"/>
    <trip id="22" depart="80.66" from="651818430#3" to="78628775#0" type="passenger"/>
    <trip id="23" depart="84.33" from="770860548#1" to="770860548#4" type="passenger"/>
    <trip id="24" depart="88.00" from="-628816140#1" to="615671500#1" type="passenger"/>
    <trip id="25" depart="91.66" from="585341904#0" to="585341909" type="passenger"/>
    <trip id="26" depart="95.33" from="770860548#4" to="-770860565#1" type="passenger"/>
    <trip id="27" depart="99.00" from="619147738#1" to="615671500#1" type="passenger"/>
    <trip id="28" depart="102.66" from="-770860565#0" to="788296726#1" type="passenger"/>
    <trip id="29" depart="106.33" from="585341901#1" to="615671502" type="passenger"/>
    <trip id="30" depart="110.00" from="770860565#0" to="176728955#1" type="passenger"/>
    <trip id="31" depart="113.66" from="438360329#1" to="-770860542#1" type="passenger"/>
    <trip id="32" depart="117.33" from="615671500#1" to="333557072#2" type="passenger"/>
    <trip id="33" depart="121.00" from="333557072#2" to="78628775#5" type="passenger"/>
    <trip id="34" depart="124.66" from="-176728955#1" to="619147730#0" type="passenger"/>
    <trip id="35" depart="128.33" from="585341901#3" to="585341901#2" type="passenger"/>
    <trip id="36" depart="132.00" from="78628775#4" to="176728955#0" type="passenger"/>
    <trip id="37" depart="135.66" from="619147736" to="619147730#3" type="passenger"/>
    <trip id="38" depart="139.33" from="619147738#1" to="516948900#5" type="passenger"/>
    <trip id="39" depart="143.00" from="1206223945" to="651818430#1" type="passenger"/>
    <trip id="40" depart="146.66" from="218926711#2" to="770860551" type="passenger"/>
    <trip id="41" depart="150.33" from="218926711#0" to="183272654" type="passenger"/>
    <trip id="42" depart="154.00" from="218926711#4" to="628816136#1" type="passenger"/>
    <trip id="43" depart="157.66" from="176728955#1" to="615671503" type="passenger"/>
    <trip id="44" depart="161.33" from="-176728955#0" to="-651818430#2" type="passenger"/>
    <trip id="45" depart="165.00" from="770860552#1" to="-770860565#0" type="passenger"/>
    <trip id="46" depart="168.66" from="218926711#4" to="-516948900#3" type="passenger"/>
    <trip id="47" depart="172.33" from="628816136#0" to="183272713#0" type="passenger"/>
    <trip id="48" depart="176.00" from="777881147#4" to="628816140#1" type="passenger"/>
    <trip id="49" depart="179.66" from="-176728955#0" to="78628775#4" type="passenger"/>
    <trip id="50" depart="183.33" from="585341901#1" to="651818430#1" type="passenger"/>
    <trip id="51" depart="186.99" from="-770860542#1" to="770860548#2" type="passenger"/>
    <trip id="52" depart="190.66" from="777881147#4" to="615671502" type="passenger"/>
    <trip id="53" depart="194.33" from="-176728955#0" to="619147730#3" type="passenger"/>
    <trip id="54" depart="197.99" from="289213613#0" to="628816136#0" type="passenger"/>
    <trip id="55" depart="201.66" from="777881147#4" to="615671505#0" type="passenger"/>
    <trip id="56" depart="205.33" from="585341909" to="628816140#2" type="passenger"/>
    <trip id="57" depart="208.99" from="-770860548#3" to="770860551" type="passenger"/>
    <trip id="58" depart="212.66" from="585341904#0" to="619147726#1" type="passenger"/>
    <trip id="59" depart="216.33" from="218926711#4" to="-770860552#2" type="passenger"/>
    <trip id="60" depart="219.99" from="78628775#0" to="770860549" type="passenger"/>
    <trip id="61" depart="223.66" from="333557072#2" to="-516948900#5" type="passenger"/>
    <trip id="62" depart="227.33" from="770860548#4" to="619147728" type="passenger"/>
    <trip id="63" depart="230.99" from="585341908#1" to="585341902" type="passenger"/>
    <trip id="64" depart="234.66" from="788296726#1" to="770860548#1" type="passenger"/>
    <trip id="65" depart="238.33" from="183272713#1" to="651818430#2" type="passenger"/>
    <trip id="66" depart="241.99" from="78628775#2" to="516948900#8" type="passenger"/>
    <trip id="67" depart="245.66" from="-628816140#1" to="-516948900#4" type="passenger"/>
    <trip id="68" depart="249.33" from="788296726#0" to="-770860552#2" type="passenger"/>
    <trip id="69" depart="252.99" from="651818430#2" to="-770860551" type="passenger"/>
    <trip id="70" depart="256.66" from="-770860565#1" to="-770860548#1" type="passenger"/>
    <trip id="71" depart="260.33" from="651818430#3" to="-628816136#0" type="passenger"/>
    <trip id="72" depart="263.99" from="438360329#0" to="770860542#1" type="passenger"/>
    <trip id="73" depart="267.66" from="516948900#8" to="-176728951" type="passenger"/>
    <trip id="74" depart="271.33" from="-176728955#1" to="770860548#3" type="passenger"/>
    <trip id="75" depart="274.99" from="176728951" to="-516948900#8" type="passenger"/>
    <trip id="76" depart="278.66" from="516948900#8" to="651818430#1" type="passenger"/>
    <trip id="77" depart="282.33" from="176728951" to="-651818430#2" type="passenger"/>
    <trip id="78" depart="285.99" from="-770860551" to="516948900#5" type="passenger"/>
    <trip id="79" depart="289.66" from="628816136#2" to="-516948900#8" type="passenger"/>
    <trip id="80" depart="293.33" from="628816136#0" to="619147736" type="passenger"/>
    <trip id="81" depart="296.99" from="585341901#3" to="218926711#2" type="passenger"/>
    <trip id="82" depart="300.66" from="218926711#4" to="619147736" type="passenger"/>
    <trip id="83" depart="304.32" from="-516948900#8" to="-770860548#2" type="passenger"/>
    <trip id="84" depart="307.99" from="-176728955#2" to="516948900#8" type="passenger"/>
    <trip id="85" depart="311.66" from="-516948900#8" to="585341904#0" type="passenger"/>
    <trip id="86" depart="315.32" from="289213613#0" to="183272713#0" type="passenger"/>
    <trip id="87" depart="318.99" from="438360329#1" to="-628816136#1" type="passenger"/>
    <trip id="88" depart="322.66" from="585341904#0" to="628816140#2" type="passenger"/>
    <trip id="89" depart="326.32" from="516948900#0" to="770860565#1" type="passenger"/>
    <trip id="90" depart="329.99" from="770860548#2" to="619147736" type="passenger"/>
    <trip id="91" depart="333.66" from="516948900#4" to="-770860548#2" type="passenger"/>
    <trip id="92" depart="337.32" from="516948900#2" to="619147730#3" type="passenger"/>
    <trip id="93" depart="340.99" from="619342756" to="628816140#1" type="passenger"/>
    <trip id="94" depart="344.66" from="585341909" to="585341901#2" type="passenger"/>
    <trip id="95" depart="348.32" from="628816136#0" to="-651818430#1" type="passenger"/>
    <trip id="96" depart="351.99" from="619147738#0" to="-770860565#1" type="passenger"/>
    <trip id="97" depart="355.66" from="628816136#0" to="78628775#2" type="passenger"/>
    <trip id="98" depart="359.32" from="-770860548#3" to="-516948900#0" type="passenger"/>
    <trip id="99" depart="362.99" from="183272713#0" to="78628775#3" type="passenger"/>
    <trip id="100" depart="366.66" from="-770860565#0" to="78628775#2" type="passenger"/>
    <trip id="101" depart="370.32" from="796927124" to="619147736" type="passenger"/>
    <trip id="102" depart="373.99" from="-770860552#1" to="438360329#0" type="passenger"/>
    <trip id="103" depart="377.66" from="218926711#1" to="619147730#0" type="passenger"/>
    <trip id="104" depart="381.32" from="183272713#1" to="628816136#0" type="passenger"/>
    <trip id="105" depart="384.99" from="-770860565#1" to="-770860548#2" type="passenger"/>
    <trip id="106" depart="388.66" from="-628816140#2" to="516948900#5" type="passenger"/>
    <trip id="107" depart="392.32" from="-176728955#0" to="-788296726#1" type="passenger"/>
    <trip id="108" depart="395.99" from="-770860548#1" to="619147738#1" type="passenger"/>
    <trip id="109" depart="399.66" from="770860548#2" to="770860548#4" type="passenger"/>
    <trip id="110" depart="403.32" from="-788296726#0" to="619147730#0" type="passenger"/>
    <trip id="111" depart="406.99" from="-788296726#0" to="628816140#2" type="passenger"/>
    <trip id="112" depart="410.66" from="770860552#1" to="78628775#0" type="passenger"/>
    <trip id="113" depart="414.32" from="770860548#4" to="-770860551" type="passenger"/>
    <trip id="114" depart="417.99" from="770860548#4" to="218926711#4" type="passenger"/>
    <trip id="115" depart="421.65" from="619147737" to="218926711#5" type="passenger"/>
    <trip id="116" depart="425.32" from="-770860548#4" to="-770860552#2" type="passenger"/>
    <trip id="117" depart="428.99" from="218926711#2" to="619147727" type="passenger"/>
    <trip id="118" depart="432.65" from="-770860565#1" to="-770860565#0" type="passenger"/>
    <trip id="119" depart="436.32" from="788296726#0" to="-516948900#0" type="passenger"/>
    <trip id="120" depart="439.99" from="-516948900#8" to="-628816136#2" type="passenger"/>
    <trip id="121" depart="443.65" from="516948900#0" to="176728955#2" type="passenger"/>
    <trip id="122" depart="447.32" from="619147738#1" to="796927124" type="passenger"/>
    <trip id="123" depart="450.99" from="333557072#0" to="1206223944" type="passenger"/>
    <trip id="124" depart="454.65" from="651818430#3" to="770860552#2" type="passenger"/>
    <trip id="125" depart="458.32" from="-770860542#1" to="619147738#1" type="passenger"/>
    <trip id="126" depart="461.99" from="198691704#1" to="585341904#1" type="passenger"/>
    <trip id="127" depart="465.65" from="-176728955#2" to="628816136#2" type="passenger"/>
    <trip id="128" depart="469.32" from="628816136#0" to="628816140#2" type="passenger"/>
    <trip id="129" depart="472.99" from="183272574#1" to="183272713#1" type="passenger"/>
    <trip id="130" depart="476.65" from="615671500#0" to="218926711#1" type="passenger"/>
    <trip id="131" depart="480.32" from="516948900#8" to="770860549" type="passenger"/>
    <trip id="132" depart="483.99" from="-651818430#2" to="-770860552#2" type="passenger"/>
    <trip id="133" depart="487.65" from="516948900#5" to="770860549" type="passenger"/>
    <trip id="134" depart="491.32" from="777881147#2" to="770860552#2" type="passenger"/>
    <trip id="135" depart="494.99" from="-770860552#1" to="183272654" type="passenger"/>
    <trip id="136" depart="498.65" from="1206223939" to="-770860565#1" type="passenger"/>
    <trip id="137" depart="502.32" from="-770860549" to="-770860542#1" type="passenger"/>
    <trip id="138" depart="505.99" from="788296726#0" to="619147726#0" type="passenger"/>
    <trip id="139" depart="509.65" from="628816136#0" to="78628775#2" type="passenger"/>
    <trip id="140" depart="513.32" from="585341901#2" to="-770860565#1" type="passenger"/>
    <trip id="141" depart="516.99" from="218926711#2" to="438360329#1" type="passenger"/>
    <trip id="142" depart="520.65" from="628816136#1" to="183272713#0" type="passenger"/>
    <trip id="143" depart="524.32" from="198566324#0" to="-770860552#1" type="passenger"/>
    <trip id="144" depart="527.99" from="333557072#2" to="788296726#0" type="passenger"/>
    <trip id="145" depart="531.65" from="-788296726#0" to="198691704#2" type="passenger"/>
    <trip id="146" depart="535.32" from="585341908#1" to="-770860548#2" type="passenger"/>
    <trip id="147" depart="538.98" from="770860552#1" to="788296726#1" type="passenger"/>
    <trip id="148" depart="542.65" from="-176728955#1" to="218926711#4" type="passenger"/>
    <trip id="149" depart="546.32" from="585341901#3" to="770860542#1" type="passenger"/>
    <trip id="150" depart="549.98" from="78628775#3" to="-770860551" type="passenger"/>
    <trip id="151" depart="553.65" from="777881147#4" to="615671502" type="passenger"/>
    <trip id="152" depart="557.32" from="788296726#1" to="1206223939" type="passenger"/>
    <trip id="153" depart="560.98" from="788296726#1" to="788296726#1" type="passenger"/>
    <trip id="154" depart="564.65" from="585341909" to="218926711#4" type="passenger"/>
    <trip id="155" depart="568.32" from="770860552#1" to="770860548#2" type="passenger"/>
    <trip id="156" depart="571.98" from="-770860565#0" to="78628775#2" type="passenger"/>
    <trip id="157" depart="575.65" from="777881147#1" to="651818430#2" type="passenger"/>
    <trip id="158" depart="579.32" from="1206223939" to="176728955#1" type="passenger"/>
    <trip id="159" depart="582.98" from="777881147#1" to="619147728" type="passenger"/>
    <trip id="160" depart="586.65" from="176728949" to="770860548#4" type="passenger"/>
    <trip id="161" depart="590.32" from="78628775#0" to="628816136#1" type="passenger"/>
    <trip id="162" depart="593.98" from="619147738#1" to="-516948900#8" type="passenger"/>
    <trip id="163" depart="597.65" from="-176728955#1" to="-516948900#8" type="passenger"/>
    <trip id="164" depart="601.32" from="628816136#0" to="-516948900#0" type="passenger"/>
    <trip id="165" depart="604.98" from="1206223947" to="183272713#0" type="passenger"/>
    <trip id="166" depart="608.65" from="218926711#4" to="1206223944" type="passenger"/>
    <trip id="167" depart="612.32" from="-628816140#2" to="585341902" type="passenger"/>
    <trip id="168" depart="615.98" from="1206223947" to="-628816136#0" type="passenger"/>
    <trip id="169" depart="619.65" from="-628816140#1" to="628816136#0" type="passenger"/>
    <trip id="170" depart="623.32" from="585341909" to="651818430#1" type="passenger"/>
    <trip id="171" depart="626.98" from="176728955#1" to="-770860548#1" type="passenger"/>
    <trip id="172" depart="630.65" from="770860542#1" to="-770860565#1" type="passenger"/>
    <trip id="173" depart="634.32" from="1206223947" to="770860552#2" type="passenger"/>
    <trip id="174" depart="637.98" from="-651818430#1" to="615671502" type="passenger"/>
    <trip id="175" depart="641.65" from="218926711#2" to="585341901#1" type="passenger"/>
    <trip id="176" depart="645.32" from="628816136#0" to="770860565#0" type="passenger"/>
    <trip id="177" depart="648.98" from="585341909" to="176728955#2" type="passenger"/>
    <trip id="178" depart="652.65" from="-651818430#1" to="615671503" type="passenger"/>
    <trip id="179" depart="656.31" from="585341904#0" to="770860565#1" type="passenger"/>
    <trip id="180" depart="659.98" from="218926711#4" to="-651818430#1" type="passenger"/>
    <trip id="181" depart="663.65" from="198691704#1" to="218926711#0" type="passenger"/>
    <trip id="182" depart="667.31" from="78628775#4" to="-628816136#0" type="passenger"/>
    <trip id="183" depart="670.98" from="628816136#1" to="628816136#0" type="passenger"/>
    <trip id="184" depart="674.65" from="777881147#1" to="-651818430#2" type="passenger"/>
    <trip id="185" depart="678.31" from="333557072#0" to="218926711#1" type="passenger"/>
    <trip id="186" depart="681.98" from="-176728955#1" to="-770860548#2" type="passenger"/>
    <trip id="187" depart="685.65" from="-770860542#1" to="-516948900#5" type="passenger"/>
    <trip id="188" depart="689.31" from="218926711#0" to="770860548#1" type="passenger"/>
    <trip id="189" depart="692.98" from="770860548#1" to="770860548#4" type="passenger"/>
    <trip id="190" depart="696.65" from="-770860552#2" to="198691704#2" type="passenger"/>
    <trip id="191" depart="700.31" from="-770860548#2" to="-516948900#2" type="passenger"/>
    <trip id="192" depart="703.98" from="796927124" to="585341909" type="passenger"/>
    <trip id="193" depart="707.65" from="1206223945" to="-176728951" type="passenger"/>
    <trip id="194" depart="711.31" from="-516948900#8" to="1206223939" type="passenger"/>
    <trip id="195" depart="714.98" from="585341908#0" to="333557072#2" type="passenger"/>
    <trip id="196" depart="718.65" from="619147737" to="615671502" type="passenger"/>
    <trip id="197" depart="722.31" from="218926711#2" to="919984684" type="passenger"/>
    <trip id="198" depart="725.98" from="628816136#2" to="438360329#0" type="passenger"/>
    <trip id="199" depart="729.65" from="796927124" to="438360329#0" type="passenger"/>
    <trip id="200" depart="733.31" from="-770860552#2" to="585341901#2" type="passenger"/>
    <trip id="201" depart="736.98" from="-628816140#2" to="585341901#2" type="passenger"/>
    <trip id="202" depart="740.65" from="-516948900#4" to="-516948900#2" type="passenger"/>
    <trip id="203" depart="744.31" from="619147727" to="1206223939" type="passenger"/>
    <trip id="204" depart="747.98" from="777881147#1" to="770860565#1" type="passenger"/>
    <trip id="205" depart="751.65" from="-788296726#0" to="585341901#2" type="passenger"/>
    <trip id="206" depart="755.31" from="-788296726#0" to="218926711#6" type="passenger"/>
    <trip id="207" depart="758.98" from="615671503" to="1206223939" type="passenger"/>
    <trip id="208" depart="762.65" from="218926711#5" to="628816140#2" type="passenger"/>
    <trip id="209" depart="766.31" from="651818430#1" to="628816136#1" type="passenger"/>
    <trip id="210" depart="769.98" from="651818430#1" to="-176728951" type="passenger"/>
    <trip id="211" depart="773.64" from="218926711#4" to="585341909" type="passenger"/>
    <trip id="212" depart="777.31" from="585341901#2" to="615671500#0" type="passenger"/>
    <trip id="213" depart="780.98" from="585341901#1" to="-770860552#2" type="passenger"/>
    <trip id="214" depart="784.64" from="438360329#0" to="1206223943" type="passenger"/>
    <trip id="215" depart="788.31" from="619147727" to="628816140#1" type="passenger"/>
    <trip id="216" depart="791.98" from="1206223943" to="585341904#1" type="passenger"/>
    <trip id="217" depart="795.64" from="628816136#0" to="-770860548#1" type="passenger"/>
    <trip id="218" depart="799.31" from="619147737" to="176728955#1" type="passenger"/>
    <trip id="219" depart="802.98" from="788296726#1" to="-788296726#0" type="passenger"/>
    <trip id="220" depart="806.64" from="1206223945" to="919984684" type="passenger"/>
    <trip id="221" depart="810.31" from="-628816140#1" to="-788296726#0" type="passenger"/>
    <trip id="222" depart="813.98" from="651818430#2" to="176728955#1" type="passenger"/>
    <trip id="223" depart="817.64" from="-770860548#2" to="585341909" type="passenger"/>
    <trip id="224" depart="821.31" from="1206223940" to="218926711#2" type="passenger"/>
    <trip id="225" depart="824.98" from="770860552#2" to="770860548#4" type="passenger"/>
    <trip id="226" depart="828.64" from="-176728955#1" to="198691704#1" type="passenger"/>
    <trip id="227" depart="832.31" from="-176728955#0" to="438360329#1" type="passenger"/>
    <trip id="228" depart="835.98" from="619147727" to="615671500#1" type="passenger"/>
    <trip id="229" depart="839.64" from="289213613#3" to="176728955#1" type="passenger"/>
    <trip id="230" depart="843.31" from="777881147#1" to="-516948900#3" type="passenger"/>
    <trip id="231" depart="846.98" from="-770860551" to="78628775#4" type="passenger"/>
    <trip id="232" depart="850.64" from="-516948900#4" to="-516948900#4" type="passenger"/>
    <trip id="233" depart="854.31" from="1206223940" to="615671503" type="passenger"/>
    <trip id="234" depart="857.98" from="-770860551" to="585341901#1" type="passenger"/>
    <trip id="235" depart="861.64" from="516948900#0" to="1206223944" type="passenger"/>
    <trip id="236" depart="865.31" from="615671500#0" to="78628775#2" type="passenger"/>
    <trip id="237" depart="868.98" from="585341909" to="78628775#3" type="passenger"/>
    <trip id="238" depart="872.64" from="516948900#3" to="585341904#0" type="passenger"/>
    <trip id="239" depart="876.31" from="198691704#2" to="438360329#0" type="passenger"/>
    <trip id="240" depart="879.98" from="438360329#0" to="919984684" type="passenger"/>
    <trip id="241" depart="883.64" from="516948900#0" to="619147730#0" type="passenger"/>
    <trip id="242" depart="887.31" from="628816136#1" to="-628816136#0" type="passenger"/>
    <trip id="243" depart="890.97" from="-770860552#2" to="438360329#1" type="passenger"/>
    <trip id="244" depart="894.64" from="218926711#6" to="-770860565#0" type="passenger"/>
    <trip id="245" depart="898.31" from="777881147#0" to="628816136#1" type="passenger"/>
    <trip id="246" depart="901.97" from="438360329#0" to="-516948900#2" type="passenger"/>
    <trip id="247" depart="905.64" from="183272574#1" to="516948900#5" type="passenger"/>
    <trip id="248" depart="909.31" from="183272654" to="-651818430#2" type="passenger"/>
    <trip id="249" depart="912.97" from="651818430#3" to="-770860542#1" type="passenger"/>
    <trip id="250" depart="916.64" from="770860552#2" to="-788296726#1" type="passenger"/>
    <trip id="251" depart="920.31" from="516948900#2" to="78628775#5" type="passenger"/>
    <trip id="252" depart="923.97" from="777881147#0" to="516948900#5" type="passenger"/>
    <trip id="253" depart="927.64" from="651818430#3" to="-516948900#4" type="passenger"/>
    <trip id="254" depart="931.31" from="796927124" to="-628816136#2" type="passenger"/>
    <trip id="255" depart="934.97" from="289213613#0" to="585341904#0" type="passenger"/>
    <trip id="256" depart="938.64" from="615671500#1" to="-651818430#3" type="passenger"/>
    <trip id="257" depart="942.31" from="777881147#4" to="78628775#0" type="passenger"/>
    <trip id="258" depart="945.97" from="628816136#2" to="438360329#1" type="passenger"/>
    <trip id="259" depart="949.64" from="585341908#1" to="-516948900#0" type="passenger"/>
    <trip id="260" depart="953.31" from="218926711#0" to="619147728" type="passenger"/>
    <trip id="261" depart="956.97" from="615671500#0" to="770860549" type="passenger"/>
    <trip id="262" depart="960.64" from="-770860552#1" to="78628775#4" type="passenger"/>
    <trip id="263" depart="964.31" from="651818430#3" to="-176728951" type="passenger"/>
    <trip id="264" depart="967.97" from="913233121" to="619147736" type="passenger"/>
    <trip id="265" depart="971.64" from="-628816140#2" to="516948900#5" type="passenger"/>
    <trip id="266" depart="975.31" from="-770860548#1" to="628816140#1" type="passenger"/>
    <trip id="267" depart="978.97" from="78628775#2" to="585341904#1" type="passenger"/>
    <trip id="268" depart="982.64" from="218926711#5" to="770860542#1" type="passenger"/>
    <trip id="269" depart="986.31" from="777881147#2" to="176728955#2" type="passenger"/>
    <trip id="270" depart="989.97" from="619147736" to="78628775#4" type="passenger"/>
    <trip id="271" depart="993.64" from="770860552#1" to="-770860542#1" type="passenger"/>
    <trip id="272" depart="997.31" from="198566324#0" to="1206223940" type="passenger"/>
    <trip id="273" depart="1000.97" from="198691704#1" to="651818430#3" type="passenger"/>
    <trip id="274" depart="1004.64" from="-770860548#3" to="438360329#1" type="passenger"/>
    <trip id="275" depart="1008.30" from="218926711#5" to="770860548#3" type="passenger"/>
    <trip id="276" depart="1011.97" from="218926711#6" to="218926711#5" type="passenger"/>
    <trip id="277" depart="1015.64" from="628816136#2" to="1206223940" type="passenger"/>
    <trip id="278" depart="1019.30" from="619147738#1" to="-770860565#1" type="passenger"/>
    <trip id="279" depart="1022.97" from="-770860549" to="-516948900#8" type="passenger"/>
    <trip id="280" depart="1026.64" from="-770860565#1" to="218926711#2" type="passenger"/>
    <trip id="281" depart="1030.30" from="615671503" to="619147738#0" type="passenger"/>
    <trip id="282" depart="1033.97" from="-176728955#0" to="-770860552#2" type="passenger"/>
    <trip id="283" depart="1037.64" from="-770860548#2" to="78628775#5" type="passenger"/>
    <trip id="284" depart="1041.30" from="796927124" to="628816136#2" type="passenger"/>
    <trip id="285" depart="1044.97" from="585341901#3" to="651818430#3" type="passenger"/>
    <trip id="286" depart="1048.64" from="770860548#3" to="183272574#1" type="passenger"/>
    <trip id="287" depart="1052.30" from="777881147#0" to="585341902" type="passenger"/>
    <trip id="288" depart="1055.97" from="-770860548#3" to="-628816136#0" type="passenger"/>
    <trip id="289" depart="1059.64" from="438360329#0" to="-176728949" type="passenger"/>
    <trip id="290" depart="1063.30" from="628816136#0" to="183272574#1" type="passenger"/>
    <trip id="291" depart="1066.97" from="770860548#3" to="770860548#1" type="passenger"/>
    <trip id="292" depart="1070.64" from="289213613#3" to="788296726#0" type="passenger"/>
    <trip id="293" depart="1074.30" from="218926711#1" to="1206223939" type="passenger"/>
    <trip id="294" depart="1077.97" from="619147726#0" to="78628775#2" type="passenger"/>
    <trip id="295" depart="1081.64" from="770860542#1" to="218926711#0" type="passenger"/>
    <trip id="296" depart="1085.30" from="-770860551" to="585341901#3" type="passenger"/>
    <trip id="297" depart="1088.97" from="788296726#0" to="198691704#2" type="passenger"/>
    <trip id="298" depart="1092.64" from="1206223945" to="788296726#1" type="passenger"/>
    <trip id="299" depart="1096.30" from="585341908#1" to="-628816136#1" type="passenger"/>
    <trip id="300" depart="1099.97" from="-770860565#1" to="-788296726#1" type="passenger"/>
    <trip id="301" depart="1103.64" from="-770860548#4" to="-628816136#0" type="passenger"/>
    <trip id="302" depart="1107.30" from="516948900#8" to="198691704#1" type="passenger"/>
    <trip id="303" depart="1110.97" from="585341901#3" to="770860548#1" type="passenger"/>
    <trip id="304" depart="1114.64" from="176728951" to="770860548#2" type="passenger"/>
    <trip id="305" depart="1118.30" from="-651818430#2" to="78628775#4" type="passenger"/>
    <trip id="306" depart="1121.97" from="516948900#8" to="619147736" type="passenger"/>
    <trip id="307" depart="1125.63" from="333557072#2" to="516948900#5" type="passenger"/>
    <trip id="308" depart="1129.30" from="-176728955#0" to="-770860542#1" type="passenger"/>
    <trip id="309" depart="1132.97" from="770860565#0" to="585341901#2" type="passenger"/>
    <trip id="310" depart="1136.63" from="1206223940" to="770860552#1" type="passenger"/>
    <trip id="311" depart="1140.30" from="770860552#1" to="651818430#3" type="passenger"/>
    <trip id="312" depart="1143.97" from="198691704#1" to="183272713#0" type="passenger"/>
    <trip id="313" depart="1147.63" from="619147737" to="218926711#2" type="passenger"/>
    <trip id="314" depart="1151.30" from="619147727" to="-651818430#3" type="passenger"/>
    <trip id="315" depart="1154.97" from="-770860549" to="198691704#2" type="passenger"/>
    <trip id="316" depart="1158.63" from="516948900#5" to="-516948900#5" type="passenger"/>
    <trip id="317" depart="1162.30" from="585341908#0" to="-770860542#1" type="passenger"/>
    <trip id="318" depart="1165.97" from="289213613#3" to="585341904#0" type="passenger"/>
    <trip id="319" depart="1169.63" from="628816136#2" to="628816140#1" type="passenger"/>
    <trip id="320" depart="1173.30" from="516948900#2" to="788296726#1" type="passenger"/>
    <trip id="321" depart="1176.97" from="770860551" to="651818430#1" type="passenger"/>
    <trip id="322" depart="1180.63" from="-770860548#1" to="218926711#0" type="passenger"/>
    <trip id="323" depart="1184.30" from="770860552#2" to="788296726#0" type="passenger"/>
    <trip id="324" depart="1187.97" from="218926711#1" to="-516948900#0" type="passenger"/>