<?xml version="1.0" encoding="UTF-8"?>

<!-- generated on 2026-04-17 02:59:20.314206 by Eclipse SUMO randomTrips.py v1.26.0
<configuration>
    <net-file value="/Users/junlee/Desktop/2026-1/js/result/tradeoff_pet_top12_seed12_60min_20260417_025716/sumo_nets/cw_5831/network.net.xml"/>
    <output-trip-file value="/Users/junlee/Desktop/2026-1/js/result/tradeoff_pet_top12_seed12_60min_20260417_025716/sumo_nets/cw_5831/routes_seed49.trips.xml"/>
    <route-file value="/Users/junlee/Desktop/2026-1/js/result/tradeoff_pet_top12_seed12_60min_20260417_025716/sumo_nets/cw_5831/routes_seed49.rou.xml"/>
    <vehicle-class value="passenger"/>
    <seed value="49"/>
    <period value="3.9783577691213456"/>
</configuration>
-->

<routes xmlns:xsi="http://www.w3.org/2001/XMLSchema-instance" xsi:noNamespaceSchemaLocation="http://sumo.dlr.de/xsd/routes_file.xsd">
    <vType id="passenger" vClass="passenger"/>
    <trip id="0" depart="0.00" from="-651818430#1" to="628816136#2" type="passenger"/>
    <trip id="1" depart="3.98" from="516948900#4" to="-516948900#2" type="passenger"/>
    <trip id="2" depart="7.96" from="-770860548#2" to="628816136#0" type="passenger"/>
    <trip id="3" depart="11.94" from="615671500#0" to="585341901#3" type="passenger"/>
    <trip id="4" depart="15.91" from="770860548#4" to="615671503" type="passenger"/>
    <trip id="5" depart="19.89" from="1206223939" to="-651818430#3" type="passenger"/>
    <trip id="6" depart="23.87" from="218926711#5" to="218926711#1" type="passenger"/>
    <trip id="7" depart="27.85" from="628816136#1" to="1206223943" type="passenger"/>
    <trip id="8" depart="31.83" from="218926711#1" to="78628775#3" type="passenger"/>
    <trip id="9" depart="35.81" from="585341917" to="619147730#0" type="passenger"/>
    <trip id="10" depart="39.78" from="-516948900#8" to="1206223939" type="passenger"/>
    <trip id="11" depart="43.76" from="585341908#0" to="183272654" type="passenger"/>
    <trip id="12" depart="47.74" from="516948900#0" to="-770860565#0" type="passenger"/>
    <trip id="13" depart="51.72" from="1206223940" to="438360329#1" type="passenger"/>
    <trip id="14" depart="55.70" from="585341909" to="619147738#1" type="passenger"/>
    <trip id="15" depart="59.68" from="516948900#2" to="218926711#2" type="passenger"/>
    <trip id="16" depart="63.65" from="585341901#2" to="585341904#1" type="passenger"/>
    <trip id="17" depart="67.63" from="-770860548#1" to="-770860552#1" type="passenger"/>
    <trip id="18" depart="71.61" from="-628816140#1" to="78628775#3" type="passenger"/>
    <trip id="19" depart="75.59" from="770860548#1" to="-516948900#4" type="passenger"/>
    <trip id="20" depart="79.57" from="183272574#1" to="-516948900#5" type="passenger"/>
    <trip id="21" depart="83.55" from="-770860552#1" to="333557072#2" type="passenger"/>
    <trip id="22" depart="87.52" from="619147738#0" to="-770860548#1" type="passenger"/>
    <trip id="23" depart="91.50" from="289213613#0" to="788296726#0" type="passenger"/>
    <trip id="24" depart="95.48" from="770860548#4" to="619147728" type="passenger"/>
    <trip id="25" depart="99.46" from="78628775#2" to="615671503" type="passenger"/>
    <trip id="26" depart="103.44" from="615671502" to="-788296726#0" type="passenger"/>
    <trip id="27" depart="107.42" from="770860552#1" to="619147730#3" type="passenger"/>
    <trip id="28" depart="111.39" from="198691704#1" to="770860565#0" type="passenger"/>
    <trip id="29" depart="115.37" from="-770860548#4" to="1206223940" type="passenger"/>
    <trip id="30" depart="119.35" from="585341908#0" to="438360329#0" type="passenger"/>
    <trip id="31" depart="123.33" from="78628775#4" to="619147736" type="passenger"/>
    <trip id="32" depart="127.31" from="333557072#0" to="-651818430#1" type="passenger"/>
    <trip id="33" depart="131.29" from="516948900#4" to="198691704#1" type="passenger"/>
    <trip id="34" depart="135.26" from="-176728955#1" to="-176728955#1" type="passenger"/>
    <trip id="35" depart="139.24" from="619147738#0" to="770860548#1" type="passenger"/>
    <trip id="36" depart="143.22" from="-770860565#1" to="770860551" type="passenger"/>
    <trip id="37" depart="147.20" from="770860552#2" to="615671502" type="passenger"/>
    <trip id="38" depart="151.18" from="-770860548#2" to="218926711#5" type="passenger"/>
    <trip id="39" depart="155.16" from="628816136#0" to="770860551" type="passenger"/>
    <trip id="40" depart="159.13" from="585341908#1" to="183272574#1" type="passenger"/>
    <trip id="41" depart="163.11" from="183272713#1" to="-770860565#0" type="passenger"/>
    <trip id="42" depart="167.09" from="-651818430#1" to="-516948900#0" type="passenger"/>
    <trip id="43" depart="171.07" from="516948900#3" to="788296726#0" type="passenger"/>
    <trip id="44" depart="175.05" from="516948900#4" to="1206223944" type="passenger"/>
    <trip id="45" depart="179.03" from="615671500#1" to="176728955#1" type="passenger"/>
    <trip id="46" depart="183.00" from="619147738#0" to="-176728951" type="passenger"/>
    <trip id="47" depart="186.98" from="619147726#0" to="-770860552#1" type="passenger"/>
    <trip id="48" depart="190.96" from="-651818430#3" to="770860548#2" type="passenger"/>
    <trip id="49" depart="194.94" from="619342756" to="-770860565#1" type="passenger"/>
    <trip id="50" depart="198.92" from="777881147#1" to="-628816136#1" type="passenger"/>
    <trip id="51" depart="202.90" from="-788296726#1" to="-516948900#2" type="passenger"/>
    <trip id="52" depart="206.87" from="1206223945" to="788296726#1" type="passenger"/>
    <trip id="53" depart="210.85" from="-651818430#3" to="183272713#1" type="passenger"/>
    <trip id="54" depart="214.83" from="585341901#3" to="78628775#2" type="passenger"/>
    <trip id="55" depart="218.81" from="-516948900#8" to="-516948900#5" type="passenger"/>
    <trip id="56" depart="222.79" from="-628816140#1" to="-788296726#1" type="passenger"/>
    <trip id="57" depart="226.77" from="198566324#0" to="-770860552#1" type="passenger"/>
    <trip id="58" depart="230.74" from="176728949" to="-628816136#0" type="passenger"/>
    <trip id="59" depart="234.72" from="218926711#5" to="619147727" type="passenger"/>
    <trip id="60" depart="238.70" from="777881147#1" to="628816136#2" type="passenger"/>
    <trip id="61" depart="242.68" from="-176728955#1" to="176728955#0" type="passenger"/>
    <trip id="62" depart="246.66" from="-770860548#4" to="183272713#0" type="passenger"/>
    <trip id="63" depart="250.64" from="777881147#4" to="218926711#1" type="passenger"/>
    <trip id="64" depart="254.61" from="615671500#1" to="176728955#2" type="passenger"/>
    <trip id="65" depart="258.59" from="-770860552#1" to="516948900#5" type="passenger"/>
    <trip id="66" depart="262.57" from="218926711#4" to="651818430#3" type="passenger"/>
    <trip id="67" depart="266.55" from="516948900#4" to="585341901#2" type="passenger"/>
    <trip id="68" depart="270.53" from="619147736" to="770860548#1" type="passenger"/>
    <trip id="69" depart="274.51" from="788296726#0" to="585341901#1" type="passenger"/>
    <trip id="70" depart="278.49" from="289213613#0" to="585341902" type="passenger"/>
    <trip id="71" depart="282.46" from="516948900#5" to="218926711#0" type="passenger"/>
    <trip id="72" depart="286.44" from="1206223940" to="585341904#1" type="passenger"/>
    <trip id="73" depart="290.42" from="-770860565#1" to="1206223943" type="passenger"/>
    <trip id="74" depart="294.40" from="1206223947" to="619147738#0" type="passenger"/>
    <trip id="75" depart="298.38" from="-176728955#1" to="585341901#3" type="passenger"/>
    <trip id="76" depart="302.36" from="-770860551" to="-770860565#0" type="passenger"/>
    <trip id="77" depart="306.33" from="183272574#1" to="628816136#0" type="passenger"/>
    <trip id="78" depart="310.31" from="-770860551" to="198691704#2" type="passenger"/>
    <trip id="79" depart="314.29" from="619147738#1" to="615671502" type="passenger"/>
    <trip id="80" depart="318.27" from="516948900#0" to="516948900#2" type="passenger"/>
    <trip id="81" depart="322.25" from="516948900#8" to="585341901#3" type="passenger"/>
    <trip id="82" depart="326.23" from="628816136#1" to="770860549" type="passenger"/>
    <trip id="83" depart="330.20" from="-770860565#0" to="-770860565#0" type="passenger"/>
    <trip id="84" depart="334.18" from="585341908#1" to="585341908#1" type="passenger"/>
    <trip id="85" depart="338.16" from="615671503" to="1206223940" type="passenger"/>
    <trip id="86" depart="342.14" from="1206223945" to="-628816136#1" type="passenger"/>
    <trip id="87" depart="346.12" from="1206223947" to="585341909" type="passenger"/>
    <trip id="88" depart="350.10" from="-651818430#3" to="919984684" type="passenger"/>
    <trip id="89" depart="354.07" from="-770860565#0" to="628816140#2" type="passenger"/>
    <trip id="90" depart="358.05" from="183272713#1" to="176728955#0" type="passenger"/>
    <trip id="91" depart="362.03" from="218926711#2" to="1206223943" type="passenger"/>
    <trip id="92" depart="366.01" from="619147737" to="218926711#2" type="passenger"/>
    <trip id="93" depart="369.99" from="770860565#0" to="788296726#0" type="passenger"/>
    <trip id="94" depart="373.97" from="78628775#2" to="615671505#0" type="passenger"/>
    <trip id="95" depart="377.94" from="615671500#1" to="176728955#0" type="passenger"/>
    <trip id="96" depart="381.92" from="-176728955#2" to="615671505#0" type="passenger"/>
    <trip id="97" depart="385.90" from="585341908#0" to="176728955#2" type="passenger"/>
    <trip id="98" depart="389.88" from="585341908#0" to="770860548#2" type="passenger"/>
    <trip id="99" depart="393.86" from="176728949" to="619147727" type="passenger"/>
    <trip id="100" depart="397.84" from="183272654" to="218926711#6" type="passenger"/>
    <trip id="101" depart="401.81" from="198691704#2" to="438360329#0" type="passenger"/>
    <trip id="102" depart="405.79" from="198691704#1" to="-516948900#4" type="passenger"/>
    <trip id="103" depart="409.77" from="1206223940" to="585341901#1" type="passenger"/>
    <trip id="104" depart="413.75" from="-628816140#2" to="585341904#1" type="passenger"/>
    <trip id="105" depart="417.73" from="585341917" to="183272574#1" type="passenger"/>
    <trip id="106" depart="421.71" from="770860548#2" to="78628775#5" type="passenger"/>
    <trip id="107" depart="425.68" from="585341909" to="628816136#0" type="passenger"/>
    <trip id="108" depart="429.66" from="585341901#2" to="628816140#2" type="passenger"/>
    <trip id="109" depart="433.64" from="770860548#2" to="-770860552#2" type="passenger"/>
    <trip id="110" depart="437.62" from="619342756" to="438360329#0" type="passenger"/>
    <trip id="111" depart="441.60" from="78628775#3" to="-770860542#1" type="passenger"/>
    <trip id="112" depart="445.58" from="628816136#2" to="-651818430#2" type="passenger"/>
    <trip id="113" depart="449.55" from="218926711#2" to="-651818430#1" type="passenger"/>
    <trip id="114" depart="453.53" from="651818430#3" to="183272654" type="passenger"/>
    <trip id="115" depart="457.51" from="-770860548#1" to="770860548#1" type="passenger"/>
    <trip id="116" depart="461.49" from="438360329#1" to="770860542#1" type="passenger"/>
    <trip id="117" depart="465.47" from="770860548#1" to="-516948900#0" type="passenger"/>
    <trip id="118" depart="469.45" from="777881147#2" to="628816136#1" type="passenger"/>
    <trip id="119" depart="473.42" from="770860552#2" to="619147730#0" type="passenger"/>
    <trip id="120" depart="477.40" from="-770860552#2" to="176728955#1" type="passenger"/>
    <trip id="121" depart="481.38" from="-770860542#1" to="438360329#0" type="passenger"/>
    <trip id="122" depart="485.36" from="770860548#1" to="619147730#3" type="passenger"/>
    <trip id="123" depart="489.34" from="516948900#5" to="-651818430#1" type="passenger"/>
    <trip id="124" depart="493.32" from="-770860542#1" to="1206223943" type="passenger"/>
    <trip id="125" depart="497.29" from="516948900#5" to="615671500#1" type="passenger"/>
    <trip id="126" depart="501.27" from="-651818430#3" to="-770860565#1" type="passenger"/>
    <trip id="127" depart="505.25" from="770860551" to="516948900#8" type="passenger"/>
    <trip id="128" depart="509.23" from="-176728955#0" to="615671500#0" type="passenger"/>
    <trip id="129" depart="513.21" from="-770860552#2" to="770860548#4" type="passenger"/>
    <trip id="130" depart="517.19" from="183272574#1" to="628816140#2" type="passenger"/>
    <trip id="131" depart="521.16" from="78628775#0" to="218926711#0" type="passenger"/>
    <trip id="132" depart="525.14" from="585341904#0" to="176728955#1" type="passenger"/>
    <trip id="133" depart="529.12" from="615671503" to="218926711#4" type="passenger"/>
    <trip id="134" depart="533.10" from="516948900#4" to="218926711#2" type="passenger"/>
    <trip id="135" depart="537.08" from="-628816140#1" to="218926711#5" type="passenger"/>
    <trip id="136" depart="541.06" from="619147727" to="-770860548#1" type="passenger"/>
    <trip id="137" depart="545.04" from="-651818430#1" to="-516948900#2" type="passenger"/>
    <trip id="138" depart="549.01" from="-770860565#1" to="615671505#0" type="passenger"/>
    <trip id="139" depart="552.99" from="-628816140#1" to="-516948900#5" type="passenger"/>
    <trip id="140" depart="556.97" from="1206223943" to="-516948900#0" type="passenger"/>
    <trip id="141" depart="560.95" from="-516948900#8" to="-176728949" type="passenger"/>
    <trip id="142" depart="564.93" from="-516948900#8" to="788296726#1" type="passenger"/>
    <trip id="143" depart="568.91" from="218926711#6" to="438360329#0" type="passenger"/>
    <trip id="144" depart="572.88" from="-651818430#3" to="183272713#1" type="passenger"/>
    <trip id="145" depart="576.86" from="-770860565#0" to="615671503" type="passenger"/>
    <trip id="146" depart="580.84" from="-770860551" to="619147727" type="passenger"/>
    <trip id="147" depart="584.82" from="-770860549" to="619147726#0" type="passenger"/>
    <trip id="148" depart="588.80" from="619147736" to="585341904#1" type="passenger"/>
    <trip id="149" depart="592.78" from="770860552#1" to="628816136#1" type="passenger"/>
    <trip id="150" depart="596.75" from="788296726#0" to="176728955#2" type="passenger"/>
    <trip id="151" depart="600.73" from="289213613#3" to="619147730#3" type="passenger"/>
    <trip id="152" depart="604.71" from="628816136#0" to="218926711#1" type="passenger"/>
    <trip id="153" depart="608.69" from="770860552#2" to="-651818430#2" type="passenger"/>
    <trip id="154" depart="612.67" from="913233121" to="-770860565#0" type="passenger"/>
    <trip id="155" depart="616.65" from="78628775#0" to="-516948900#4" type="passenger"/>
    <trip id="156" depart="620.62" from="-770860565#0" to="-770860565#0" type="passenger"/>
    <trip id="157" depart="624.60" from="770860548#1" to="218926711#5" type="passenger"/>
    <trip id="158" depart="628.58" from="770860548#2" to="-770860548#2" type="passenger"/>
    <trip id="159" depart="632.56" from="218926711#1" to="585341909" type="passenger"/>
    <trip id="160" depart="636.54" from="585341901#3" to="619147730#0" type="passenger"/>
    <trip id="161" depart="640.52" from="-770860548#2" to="176728955#0" type="passenger"/>
    <trip id="162" depart="644.49" from="218926711#0" to="218926711#2" type="passenger"/>
    <trip id="163" depart="648.47" from="777881147#0" to="176728955#1" type="passenger"/>
    <trip id="164" depart="652.45" from="585341901#1" to="176728955#0" type="passenger"/>
    <trip id="165" depart="656.43" from="289213613#0" to="198691704#1" type="passenger"/>
    <trip id="166" depart="660.41" from="770860552#1" to="619147726#1" type="passenger"/>
    <trip id="167" depart="664.39" from="651818430#1" to="-628816136#2" type="passenger"/>
    <trip id="168" depart="668.36" from="770860551" to="628816140#2" type="passenger"/>
    <trip id="169" depart="672.34" from="516948900#5" to="651818430#3" type="passenger"/>
    <trip id="170" depart="676.32" from="770860542#1" to="615671503" type="passenger"/>
    <trip id="171" depart="680.30" from="615671503" to="218926711#0" type="passenger"/>
    <trip id="172" depart="684.28" from="1206223940" to="-628816136#1" type="passenger"/>
    <trip id="173" depart="688.26" from="585341908#1" to="619147726#0" type="passenger"/>
    <trip id="174" depart="692.23" from="615671502" to="585341904#0" type="passenger"/>
    <trip id="175" depart="696.21" from="651818430#1" to="516948900#5" type="passenger"/>
    <trip id="176" depart="700.19" from="516948900#8" to="628816136#1" type="passenger"/>
    <trip id="177" depart="704.17" from="-628816140#1" to="619147738#0" type="passenger"/>
    <trip id="178" depart="708.15" from="1206223940" to="619147730#0" type="passenger"/>
    <trip id="179" depart="712.13" from="770860552#1" to="651818430#3" type="passenger"/>
    <trip id="180" depart="716.10" from="-770860548#1" to="-770860565#1" type="passenger"/>
    <trip id="181" depart="720.08" from="777881147#1" to="183272713#1" type="passenger"/>
    <trip id="182" depart="724.06" from="-770860552#1" to="-516948900#5" type="passenger"/>
    <trip id="183" depart="728.04" from="585341901#1" to="796927124" type="passenger"/>
    <trip id="184" depart="732.02" from="78628775#4" to="585341901#3" type="passenger"/>
    <trip id="185" depart="736.00" from="585341904#1" to="176728955#0" type="passenger"/>
    <trip id="186" depart="739.97" from="770860548#3" to="-770860552#1" type="passenger"/>
    <trip id="187" depart="743.95" from="438360329#1" to="585341904#1" type="passenger"/>
    <trip id="188" depart="747.93" from="333557072#0" to="-516948900#5" type="passenger"/>
    <trip id="189" depart="751.91" from="770860548#4" to="770860548#1" type="passenger"/>
    <trip id="190" depart="755.89" from="516948900#8" to="770860548#1" type="passenger"/>
    <trip id="191" depart="759.87" from="585341917" to="176728955#2" type="passenger"/>
    <trip id="192" depart="763.84" from="218926711#2" to="218926711#5" type="passenger"/>
    <trip id="193" depart="767.82" from="651818430#1" to="78628775#5" type="passenger"/>
    <trip id="194" depart="771.80" from="619342756" to="619147730#0" type="passenger"/>
    <trip id="195" depart="775.78" from="333557072#0" to="585341909" type="passenger"/>
    <trip id="196" depart="779.76" from="183272654" to="-770860548#1" type="passenger"/>
    <trip id="197" depart="783.74" from="788296726#0" to="585341904#0" type="passenger"/>
    <trip id="198" depart="787.71" from="788296726#1" to="-628816136#1" type="passenger"/>
    <trip id="199" depart="791.69" from="585341901#3" to="628816140#2" type="passenger"/>
    <trip id="200" depart="795.67" from="-770860549" to="-628816136#1" type="passenger"/>
    <trip id="201" depart="799.65" from="585341901#1" to="-788296726#0" type="passenger"/>
    <trip id="202" depart="803.63" from="333557072#2" to="333557072#2" type="passenger"/>
    <trip id="203" depart="807.61" from="289213613#0" to="619342756" type="passenger"/>
    <trip id="204" depart="811.58" from="289213613#3" to="-516948900#8" type="passenger"/>
    <trip id="205" depart="815.56" from="585341908#1" to="770860548#1" type="passenger"/>
    <trip id="206" depart="819.54" from="-770860548#2" to="770860548#2" type="passenger"/>
    <trip id="207" depart="823.52" from="585341908#1" to="585341908#1" type="passenger"/>
    <trip id="208" depart="827.50" from="-770860542#1" to="-516948900#2" type="passenger"/>
    <trip id="209" depart="831.48" from="198691704#1" to="-770860552#1" type="passenger"/>
    <trip id="210" depart="835.46" from="78628775#0" to="-516948900#5" type="passenger"/>
    <trip id="211" depart="839.43" from="619147726#0" to="-770860565#0" type="passenger"/>
    <trip id="212" depart="843.41" from="198691704#2" to="516948900#5" type="passenger"/>
    <trip id="213" depart="847.39" from="183272654" to="-628816136#1" type="passenger"/>
    <trip id="214" depart="851.37" from="788296726#0" to="-770860565#0" type="passenger"/>
    <trip id="215" depart="855.35" from="176728955#1" to="770860552#2" type="passenger"/>
    <trip id="216" depart="859.33" from="770860548#2" to="919984684" type="passenger"/>
    <trip id="217" depart="863.30" from="-770860565#0" to="-770860565#0" type="passenger"/>
    <trip id="218" depart="867.28" from="770860552#2" to="-628816136#0" type="passenger"/>
    <trip id="219" depart="871.26" from="770860552#2" to="585341904#1" type="passenger"/>
    <trip id="220" depart="875.24" from="-770860552#2" to="333557072#2" type="passenger"/>
    <trip id="221" depart="879.22" from="438360329#1" to="183272713#1" type="passenger"/>
    <trip id="222" depart="883.20" from="516948900#8" to="770860551" type="passenger"/>
    <trip id="223" depart="887.17" from="-788296726#1" to="628816136#2" type="passenger"/>
    <trip id="224" depart="891.15" from="770860548#2" to="628816136#1" type="passenger"/>
    <trip id="225" depart="895.13" from="516948900#5" to="770860565#1" type="passenger"/>
    <trip id="226" depart="899.11" from="-770860551" to="-770860542#1" type="passenger"/>
    <trip id="227" depart="903.09" from="-176728955#0" to="183272654" type="passenger"/>
    <trip id="228" depart="907.07" from="198691704#2" to="-651818430#2" type="passenger"/>
    <trip id="229" depart="911.04" from="-176728955#2" to="770860552#2" type="passenger"/>
    <trip id="230" depart="915.02" from="-770860548#4" to="788296726#1" type="passenger"/>
    <trip id="231" depart="919.00" from="78628775#4" to="619147728" type="passenger"/>
    <trip id="232" depart="922.98" from="218926711#4" to="615671500#0" type="passenger"/>
    <trip id="233" depart="926.96" from="619342756" to="218926711#5" type="passenger"/>
    <trip id="234" depart="930.94" from="913233121" to="-651818430#2" type="passenger"/>
    <trip id="235" depart="934.91" from="1206223940" to="770860542#1" type="passenger"/>
    <trip id="236" depart="938.89" from="-628816140#2" to="-770860548#2" type="passenger"/>
    <trip id="237" depart="942.87" from="777881147#0" to="770860548#3" type="passenger"/>
    <trip id="238" depart="946.85" from="770860542#1" to="78628775#2" type="passenger"/>
    <trip id="239" depart="950.83" from="770860552#1" to="218926711#4" type="passenger"/>
    <trip id="240" depart="954.81" from="788296726#1" to="770860549" type="passenger"/>
    <trip id="241" depart="958.78" from="913233121" to="-176728949" type="passenger"/>
    <trip id="242" depart="962.76" from="651818430#1" to="615671500#1" type="passenger"/>
    <trip id="243" depart="966.74" from="438360329#0" to="516948900#8" type="passenger"/>
    <trip id="244" depart="970.72" from="218926711#2" to="619147738#1" type="passenger"/>
    <trip id="245" depart="974.70" from="218926711#4" to="585341901#2" type="passenger"/>
    <trip id="246" depart="978.68" from="615671500#0" to="770860565#0" type="passenger"/>
    <trip id="247" depart="982.65" from="1206223945" to="218926711#4" type="passenger"/>
    <trip id="248" depart="986.63" from="615671500#1" to="-770860552#2" type="passenger"/>
    <trip id="249" depart="990.61" from="770860548#4" to="770860548#4" type="passenger"/>
    <trip id="250" depart="994.59" from="615671500#0" to="615671500#1" type="passenger"/>
    <trip id="251" depart="998.57" from="788296726#1" to="770860548#1" type="passenger"/>
    <trip id="252" depart="1002.55" from="-770860549" to="585341902" type="passenger"/>
    <trip id="253" depart="1006.52" from="78628775#3" to="78628775#5" type="passenger"/>
    <trip id="254" depart="1010.50" from="-770860552#1" to="628816140#2" type="passenger"/>
    <trip id="255" depart="1014.48" from="585341917" to="-516948900#5" type="passenger"/>
    <trip id="256" depart="1018.46" from="770860552#2" to="615671500#1" type="passenger"/>
    <trip id="257" depart="1022.44" from="218926711#5" to="628816136#1" type="passenger"/>
    <trip id="258" depart="1026.42" from="176728949" to="585341909" type="passenger"/>
    <trip id="259" depart="1030.39" from="651818430#2" to="218926711#6" type="passenger"/>
    <trip id="260" depart="1034.37" from="-651818430#3" to="651818430#2" type="passenger"/>
    <trip id="261" depart="1038.35" from="651818430#3" to="-516948900#2" type="passenger"/>
    <trip id="262" depart="1042.33" from="183272574#1" to="585341904#0" type="passenger"/>
    <trip id="263" depart="1046.31" from="585341908#1" to="796927124" type="passenger"/>
    <trip id="264" depart="1050.29" from="651818430#1" to="1206223943" type="passenger"/>
    <trip id="265" depart="1054.26" from="770860548#1" to="-770860542#1" type="passenger"/>
    <trip id="266" depart="1058.24" from="777881147#1" to="183272574#1" type="passenger"/>
    <trip id="267" depart="1062.22" from="615671502" to="516948900#5" type="passenger"/>
    <trip id="268" depart="1066.20" from="585341908#1" to="585341901#3" type="passenger"/>
    <trip id="269" depart="1070.18" from="-770860549" to="-651818430#1" type="passenger"/>
    <trip id="270" depart="1074.16" from="198691704#2" to="-651818430#1" type="passenger"/>
    <trip id="271" depart="1078.13" from="516948900#0" to="585341904#0" type="passenger"/>
    <trip id="272" depart="1082.11" from="585341904#0" to="-770860565#0" type="passenger"/>
    <trip id="273" depart="1086.09" from="619147738#1" to="770860552#1" type="passenger"/>
    <trip id="274" depart="1090.07" from="1206223947" to="198691704#1" type="passenger"/>
    <trip id="275" depart="1094.05" from="1206223939" to="-788296726#1" type="passenger"/>
    <trip id="276" depart="1098.03" from="-770860552#2" to="-770860552#2" type="passenger"/>
    <trip id="277" depart="1102.01" from="777881147#1" to="619147730#0" type="passenger"/>
    <trip id="278" depart="1105.98" from="78628775#3" to="-651818430#3" type="passenger"/>
    <trip id="279" depart="1109.96" from="-651818430#2" to="333557072#2" type="passenger"/>
    <trip id="280" depart="1113.94" from="796927124" to="183272574#1" type="passenger"/>
    <trip id="281" depart="1117.92" from="770860565#0" to="218926711#0" type="passenger"/>
    <trip id="282" depart="1121.90" from="183272574#1" to="176728955#0" type="passenger"/>
    <trip id="283" depart="1125.88" from="-770860551" to="-651818430#3" type="passenger"/>
    <trip id="284" depart="1129.85" from="-628816140#2" to="770860548#1" type="passenger"/>
    <trip id="285" depart="1133.83" from="770860552#1" to="-651818430#3" type="passenger"/>
    <trip id="286" depart="1137.81" from="-516948900#8" to="585341904#0" type="passenger"/>
    <trip id="287" depart="1141.79" from="770860552#1" to="176728955#2" type="passenger"/>
    <trip id="288" depart="1145.77" from="-628816140#2" to="615671500#1" type="passenger"/>
    <trip id="289" depart="1149.75" from="218926711#4" to="615671503" type="passenger"/>
    <trip id="290" depart="1153.72" from="770860548#3" to="198691704#2" type="passenger"/>
    <trip id="291" depart="1157.70" from="770860542#1" to="770860548#2" type="passenger"/>
    <trip id="292" depart="1161.68" from="516948900#5" to="770860565#0" type="passenger"/>
    <trip id="293" depart="1165.66" from="183272713#1" to="770860551" type="passenger"/>
    <trip id="294" depart="1169.64" from="78628775#0" to="-770860552#1" type="passenger"/>
    <trip id="295" depart="1173.62" from="619147738#1" to="-770860542#1" type="passenger"/>
    <trip id="296" depart="1177.59" from="619147726#0" to="198691704#2" type="passenger"/>
    <trip id="297" depart="1181.57" from="777881147#4" to="770860548#1" type="passenger"/>
    <trip id="298" depart="1185.55" from="516948900#5" to="-516948900#0" type="passenger"/>
    <trip id="299" depart="1189.53" from="-770860548#2" to="-770860551" type="passenger"/>
    <trip id="300" depart="1193.51" from="619147736" to="-770860565#0" type="passenger"/>
    <trip id="301" depart="1197.49" from="176728951" to="183272574#1" type="passenger"/>
    <trip id="302" depart="1201.46" from="289213613#3" to="619147727" type="passenger"/>
    <trip id="303" depart="1205.44" from="619147726#0" to="78628775#3" type="passenger"/>
    <trip id="304" depart="1209.42" from="183272654" to="-651818430#1" type="passenger"/>
    <trip id="305" depart="1213.40" from="183272713#1" to="585341904#1" type="passenger"/>
    <trip id="306" depart="1217.38" from="777881147#4" to="788296726#0" type="passenger"/>
    <trip id="307" depart="1221.36" from="516948900#5" to="770860548#2" type="passenger"/>
    <trip id="308" depart="1225.33" from="585341909" to="183272713#1" type="passenger"/>
    <trip id="309" depart="1229.31" from="-770860548#1" to="-651818430#3" type="passenger"/>
    <trip id="310" depart="1233.29" from="585341901#3" to="619147738#1" type="passenger"/>
    <trip id="311" depart="1237.27" from="516948900#0" to="1206223943" type="passenger"/>
    <trip id="312" depart="1241.25" from="-770860548#4" to="-770860552#1" type="passenger"/>
    <trip id="313" depart="1245.23" from="651818430#3" to="78628775#4" type="passenger"/>
    <trip id="314" depart="1249.20" from="770860565#1" to="770860565#1" type="passenger"/>
    <trip id="315" depart="1253.18" from="198691704#2" to="-628816136#1" type="passenger"/>
    <trip id="316" depart="1257.16" from="218926711#5" to="585341904#0" type="passenger"/>
    <trip id="317" depart="1261.14" from="615671503" to="-516948900#4" type="passenger"/>
    <trip id="318" depart="1265.12" from="619147736" to="438360329#0" type="passenger"/>
    <trip id="319" depart="1269.10" from="198691704#1" to="-516948900#5" type="passenger"/>
    <trip id="320" depart="1273.07" from="585341904#1" to="619147727" type="passenger"/>
    <trip id="321" depart="1277.05" from="619147738#0" to="218926711#4" type="passenger"/>
    <trip id="322" depart="1281.03" from="78628775#3" to="770860552#1" type="passenger"/>
    <trip id="323" depart="1285.01" from="183272574#1" to="-651818430#3" type="passenger"/>