<?xml version="1.0" encoding="UTF-8"?>

<!-- generated on 2026-04-17 02:59:14.556572 by Eclipse SUMO randomTrips.py v1.26.0
<configuration>
    <net-file value="/Users/junlee/Desktop/2026-1/js/result/tradeoff_pet_top12_seed12_60min_20260417_025716/sumo_nets/cw_5831/network.net.xml"/>
    <output-trip-file value="/Users/junlee/Desktop/2026-1/js/result/tradeoff_pet_top12_seed12_60min_20260417_025716/sumo_nets/cw_5831/routes_seed42.trips.xml"/>
    <route-file value="/Users/junlee/Desktop/2026-1/js/result/tradeoff_pet_top12_seed12_60min_20260417_025716/sumo_nets/cw_5831/routes_seed42.rou.xml"/>
    <vehicle-class value="passenger"/>
    <period value="3.9327242324431526"/>
</configuration>
-->

<routes xmlns:xsi="http://www.w3.org/2001/XMLSchema-instance" xsi:noNamespaceSchemaLocation="http://sumo.dlr.de/xsd/routes_file.xsd">
    <vType id="passenger" vClass="passenger"/>
    <trip id="0" depart="0.00" from="1206223945" to="-770860565#1" type="passenger"/>
    <trip id="1" depart="3.93" from="-770860565#1" to="585341901#3" type="passenger"/>
    <trip id="2" depart="7.87" from="615671502" to="585341904#1" type="passenger"/>
    <trip id="3" depart="11.80" from="-770860565#1" to="615671500#1" type="passenger"/>
    <trip id="4" depart="15.73" from="651818430#3" to="-176728949" type="passenger"/>
    <trip id="5" depart="19.66" from="651818430#2" to="619147738#1" type="passenger"/>
    <trip id="6" depart="23.60" from="183272654" to="-770860548#1" type="passenger"/>
    <trip id="7" depart="27.53" from="78628775#3" to="183272713#1" type="passenger"/>
    <trip id="8" depart="31.46" from="-628816140#2" to="-628816136#1" type="passenger"/>
    <trip id="9" depart="35.39" from="770860548#3" to="615671503" type="passenger"/>
    <trip id="10" depart="39.33" from="651818430#2" to="628816136#0" type="passenger"/>
    <trip id="11" depart="43.26" from="585341901#1" to="788296726#0" type="passenger"/>
    <trip id="12" depart="47.19" from="770860548#1" to="615671505#1" type="passenger"/>
    <trip id="13" depart="51.13" from="770860551" to="615671500#0" type="passenger"/>
    <trip id="14" depart="55.06" from="619147736" to="-516948900#2" type="passenger"/>
    <trip id="15" depart="58.99" from="-788296726#0" to="176728955#0" type="passenger"/>
    <trip id="16" depart="62.92" from="615671500#1" to="218926711#0" type="passenger"/>
    <trip id="17" depart="66.86" from="198691704#1" to="-770860552#2" type="passenger"/>
    <trip id="18" depart="70.79" from="615671502" to="615671505#0" type="passenger"/>
    <trip id="19" depart="74.72" from="-770860548#4" to="628816136#0" type="passenger"/>
    <trip id="20" depart="78.65" from="-770860548#3" to="218926711#2" type="passenger"/>
    <trip id="21" depart="82.59" from="796927124" to="619147726#1" type="passenger"/>
    <trip id="22" depart="86.52" from="585341901#3" to="619147738#0" type="passenger"/>
    <trip id="23" depart="90.45" from="176728955#0" to="1206223943" type="passenger"/>
    <trip id="24" depart="94.39" from="-770860565#0" to="78628775#3" type="passenger"/>
    <trip id="25" depart="98.32" from="770860552#2" to="183272574#1" type="passenger"/>
    <trip id="26" depart="102.25" from="615671503" to="218926711#5" type="passenger"/>
    <trip id="27" depart="106.18" from="1206223943" to="-788296726#1" type="passenger"/>
    <trip id="28" depart="110.12" from="218926711#1" to="-770860565#0" type="passenger"/>
    <trip id="29" depart="114.05" from="913233121" to="585341901#3" type="passenger"/>
    <trip id="30" depart="117.98" from="-628816140#1" to="-516948900#2" type="passenger"/>
    <trip id="31" depart="121.91" from="-651818430#1" to="619147726#0" type="passenger"/>
    <trip id="32" depart="125.85" from="651818430#1" to="333557072#2" type="passenger"/>
    <trip id="33" depart="129.78" from="-516948900#8" to="218926711#2" type="passenger"/>
    <trip id="34" depart="133.71" from="788296726#0" to="770860551" type="passenger"/>
    <trip id="35" depart="137.65" from="-651818430#1" to="438360329#0" type="passenger"/>
    <trip id="36" depart="141.58" from="333557072#0" to="78628775#4" type="passenger"/>
    <trip id="37" depart="145.51" from="770860552#2" to="1206223940" type="passenger"/>
    <trip id="38" depart="149.44" from="777881147#1" to="770860552#1" type="passenger"/>
    <trip id="39" depart="153.38" from="176728949" to="619147726#1" type="passenger"/>
    <trip id="40" depart="157.31" from="585341909" to="-770860542#1" type="passenger"/>
    <trip id="41" depart="161.24" from="628816136#0" to="585341904#1" type="passenger"/>
    <trip id="42" depart="165.17" from="628816136#2" to="585341904#0" type="passenger"/>
    <trip id="43" depart="169.11" from="-176728955#0" to="183272654" type="passenger"/>
    <trip id="44" depart="173.04" from="-176728955#2" to="78628775#0" type="passenger"/>
    <trip id="45" depart="176.97" from="770860552#2" to="770860548#3" type="passenger"/>
    <trip id="46" depart="180.91" from="176728951" to="-516948900#3" type="passenger"/>
    <trip id="47" depart="184.84" from="770860552#2" to="78628775#3" type="passenger"/>
    <trip id="48" depart="188.77" from="-628816140#1" to="516948900#8" type="passenger"/>
    <trip id="49" depart="192.70" from="628816136#0" to="-651818430#2" type="passenger"/>
    <trip id="50" depart="196.64" from="1206223943" to="770860552#2" type="passenger"/>
    <trip id="51" depart="200.57" from="218926711#5" to="-770860552#2" type="passenger"/>
    <trip id="52" depart="204.50" from="585341901#1" to="628816136#0" type="passenger"/>
    <trip id="53" depart="208.43" from="-770860552#2" to="183272574#1" type="passenger"/>
    <trip id="54" depart="212.37" from="913233121" to="619147728" type="passenger"/>
    <trip id="55" depart="216.30" from="289213613#0" to="585341902" type="passenger"/>
    <trip id="56" depart="220.23" from="-651818430#2" to="-770860565#1" type="passenger"/>
    <trip id="57" depart="224.17" from="183272654" to="615671500#1" type="passenger"/>
    <trip id="58" depart="228.10" from="-788296726#0" to="-770860565#0" type="passenger"/>
    <trip id="59" depart="232.03" from="770860551" to="-516948900#5" type="passenger"/>
    <trip id="60" depart="235.96" from="-788296726#1" to="619147730#3" type="passenger"/>
    <trip id="61" depart="239.90" from="-770860565#0" to="-651818430#2" type="passenger"/>
    <trip id="62" depart="243.83" from="438360329#0" to="651818430#1" type="passenger"/>
    <trip id="63" depart="247.76" from="651818430#2" to="-770860551" type="passenger"/>
    <trip id="64" depart="251.69" from="-628816140#2" to="438360329#0" type="passenger"/>
    <trip id="65" depart="255.63" from="619147738#1" to="619147730#3" type="passenger"/>
    <trip id="66" depart="259.56" from="796927124" to="-628816136#1" type="passenger"/>
    <trip id="67" depart="263.49" from="218926711#2" to="183272713#1" type="passenger"/>
    <trip id="68" depart="267.43" from="770860551" to="1206223939" type="passenger"/>
    <trip id="69" depart="271.36" from="218926711#5" to="1206223944" type="passenger"/>
    <trip id="70" depart="275.29" from="1206223939" to="78628775#0" type="passenger"/>
    <trip id="71" depart="279.22" from="289213613#3" to="770860551" type="passenger"/>
    <trip id="72" depart="283.16" from="585341901#3" to="-516948900#2" type="passenger"/>
    <trip id="73" depart="287.09" from="913233121" to="770860548#3" type="passenger"/>
    <trip id="74" depart="291.02" from="788296726#0" to="78628775#0" type="passenger"/>
    <trip id="75" depart="294.95" from="770860548#3" to="-770860548#2" type="passenger"/>
    <trip id="76" depart="298.89" from="516948900#0" to="-770860565#0" type="passenger"/>
    <trip id="77" depart="302.82" from="218926711#2" to="-516948900#3" type="passenger"/>
    <trip id="78" depart="306.75" from="198691704#2" to="796927124" type="passenger"/>
    <trip id="79" depart="310.69" from="1206223943" to="651818430#1" type="passenger"/>
    <trip id="80" depart="314.62" from="333557072#0" to="333557072#2" type="passenger"/>
    <trip id="81" depart="318.55" from="78628775#3" to="919984684" type="passenger"/>
    <trip id="82" depart="322.48" from="-770860548#2" to="176728955#1" type="passenger"/>
    <trip id="83" depart="326.42" from="788296726#0" to="615671500#0" type="passenger"/>
    <trip id="84" depart="330.35" from="585341901#2" to="628816136#2" type="passenger"/>
    <trip id="85" depart="334.28" from="516948900#3" to="770860549" type="passenger"/>
    <trip id="86" depart="338.21" from="-770860548#2" to="78628775#5" type="passenger"/>
    <trip id="87" depart="342.15" from="585341908#0" to="619147730#3" type="passenger"/>
    <trip id="88" depart="346.08" from="-788296726#1" to="-651818430#1" type="passenger"/>
    <trip id="89" depart="350.01" from="770860565#0" to="-788296726#1" type="passenger"/>
    <trip id="90" depart="353.95" from="585341908#0" to="615671505#1" type="passenger"/>
    <trip id="91" depart="357.88" from="218926711#5" to="615671500#1" type="passenger"/>
    <trip id="92" depart="361.81" from="516948900#5" to="78628775#2" type="passenger"/>
    <trip id="93" depart="365.74" from="-788296726#1" to="218926711#5" type="passenger"/>
    <trip id="94" depart="369.68" from="619147726#0" to="176728955#2" type="passenger"/>
    <trip id="95" depart="373.61" from="176728955#0" to="628816136#2" type="passenger"/>
    <trip id="96" depart="377.54" from="913233121" to="919984684" type="passenger"/>
    <trip id="97" depart="381.47" from="1206223943" to="78628775#2" type="passenger"/>
    <trip id="98" depart="385.41" from="770860552#2" to="770860552#2" type="passenger"/>
    <trip id="99" depart="389.34" from="198691704#1" to="-770860548#1" type="passenger"/>
    <trip id="100" depart="393.27" from="585341909" to="796927124" type="passenger"/>
    <trip id="101" depart="397.21" from="615671503" to="-176728949" type="passenger"/>
    <trip id="102" depart="401.14" from="770860542#1" to="176728955#2" type="passenger"/>
    <trip id="103" depart="405.07" from="619147738#0" to="-770860552#1" type="passenger"/>
    <trip id="104" depart="409.00" from="615671500#1" to="1206223940" type="passenger"/>
    <trip id="105" depart="412.94" from="770860548#3" to="-628816136#0" type="passenger"/>
    <trip id="106" depart="416.87" from="218926711#5" to="1206223944" type="passenger"/>
    <trip id="107" depart="420.80" from="615671500#1" to="1206223940" type="passenger"/>
    <trip id="108" depart="424.73" from="218926711#6" to="-176728951" type="passenger"/>
    <trip id="109" depart="428.67" from="777881147#0" to="585341904#1" type="passenger"/>
    <trip id="110" depart="432.60" from="770860548#2" to="615671500#1" type="passenger"/>
    <trip id="111" depart="436.53" from="-770860548#1" to="-651818430#1" type="passenger"/>
    <trip id="112" depart="440.47" from="651818430#1" to="770860551" type="passenger"/>
    <trip id="113" depart="444.40" from="1206223939" to="-628816136#2" type="passenger"/>
    <trip id="114" depart="448.33" from="628816136#2" to="770860565#0" type="passenger"/>
    <trip id="115" depart="452.26" from="218926711#2" to="615671505#1" type="passenger"/>
    <trip id="116" depart="456.20" from="-770860548#2" to="78628775#0" type="passenger"/>
    <trip id="117" depart="460.13" from="770860551" to="788296726#1" type="passenger"/>
    <trip id="118" depart="464.06" from="651818430#3" to="770860565#0" type="passenger"/>
    <trip id="119" depart="467.99" from="-176728955#2" to="628816136#1" type="passenger"/>
    <trip id="120" depart="471.93" from="183272574#1" to="78628775#0" type="passenger"/>
    <trip id="121" depart="475.86" from="651818430#2" to="770860552#1" type="passenger"/>
    <trip id="122" depart="479.79" from="651818430#3" to="1206223943" type="passenger"/>
    <trip id="123" depart="483.73" from="770860552#1" to="770860551" type="passenger"/>
    <trip id="124" depart="487.66" from="-770860565#1" to="770860548#1" type="passenger"/>
    <trip id="125" depart="491.59" from="333557072#2" to="176728955#2" type="passenger"/>
    <trip id="126" depart="495.52" from="651818430#1" to="-770860565#1" type="passenger"/>
    <trip id="127" depart="499.46" from="-176728955#2" to="-770860551" type="passenger"/>
    <trip id="128" depart="503.39" from="183272574#1" to="770860552#1" type="passenger"/>
    <trip id="129" depart="507.32" from="788296726#0" to="1206223944" type="passenger"/>
    <trip id="130" depart="511.25" from="615671500#1" to="218926711#5" type="passenger"/>
    <trip id="131" depart="515.19" from="788296726#1" to="585341904#0" type="passenger"/>
    <trip id="132" depart="519.12" from="78628775#4" to="1206223943" type="passenger"/>
    <trip id="133" depart="523.05" from="-651818430#1" to="438360329#0" type="passenger"/>
    <trip id="134" depart="526.99" from="619147738#1" to="183272574#1" type="passenger"/>
    <trip id="135" depart="530.92" from="585341908#1" to="585341901#3" type="passenger"/>
    <trip id="136" depart="534.85" from="218926711#0" to="615671500#0" type="passenger"/>
    <trip id="137" depart="538.78" from="-176728955#0" to="78628775#0" type="passenger"/>
    <trip id="138" depart="542.72" from="198566324#0" to="-516948900#5" type="passenger"/>
    <trip id="139" depart="546.65" from="176728955#0" to="770860549" type="passenger"/>
    <trip id="140" depart="550.58" from="619147738#0" to="176728955#2" type="passenger"/>
    <trip id="141" depart="554.51" from="176728955#0" to="218926711#6" type="passenger"/>
    <trip id="142" depart="558.45" from="218926711#2" to="176728955#1" type="passenger"/>
    <trip id="143" depart="562.38" from="-651818430#3" to="333557072#2" type="passenger"/>
    <trip id="144" depart="566.31" from="78628775#0" to="619147736" type="passenger"/>
    <trip id="145" depart="570.25" from="777881147#0" to="615671505#1" type="passenger"/>
    <trip id="146" depart="574.18" from="-176728955#0" to="176728955#0" type="passenger"/>
    <trip id="147" depart="578.11" from="218926711#6" to="615671500#0" type="passenger"/>
    <trip id="148" depart="582.04" from="289213613#3" to="-770860565#0" type="passenger"/>
    <trip id="149" depart="585.98" from="651818430#1" to="-770860548#2" type="passenger"/>
    <trip id="150" depart="589.91" from="-628816140#1" to="585341902" type="passenger"/>
    <trip id="151" depart="593.84" from="615671500#0" to="183272713#1" type="passenger"/>
    <trip id="152" depart="597.77" from="770860542#1" to="628816136#2" type="passenger"/>
    <trip id="153" depart="601.71" from="619147726#0" to="-770860565#1" type="passenger"/>
    <trip id="154" depart="605.64" from="1206223939" to="516948900#5" type="passenger"/>
    <trip id="155" depart="609.57" from="770860548#3" to="-516948900#5" type="passenger"/>
    <trip id="156" depart="613.50" from="218926711#4" to="619147726#0" type="passenger"/>
    <trip id="157" depart="617.44" from="-770860552#1" to="619147738#1" type="passenger"/>
    <trip id="158" depart="621.37" from="516948900#2" to="-788296726#1" type="passenger"/>
    <trip id="159" depart="625.30" from="615671503" to="-176728949" type="passenger"/>
    <trip id="160" depart="629.24" from="-770860549" to="78628775#5" type="passenger"/>
    <trip id="161" depart="633.17" from="516948900#5" to="-516948900#2" type="passenger"/>
    <trip id="162" depart="637.10" from="1206223939" to="770860549" type="passenger"/>
    <trip id="163" depart="641.03" from="333557072#0" to="651818430#3" type="passenger"/>
    <trip id="164" depart="644.97" from="619147726#0" to="796927124" type="passenger"/>
    <trip id="165" depart="648.90" from="585341908#0" to="78628775#4" type="passenger"/>
    <trip id="166" depart="652.83" from="770860565#0" to="615671505#0" type="passenger"/>
    <trip id="167" depart="656.76" from="619147738#0" to="585341901#3" type="passenger"/>
    <trip id="168" depart="660.70" from="438360329#0" to="1206223940" type="passenger"/>
    <trip id="169" depart="664.63" from="1206223939" to="619147726#1" type="passenger"/>
    <trip id="170" depart="668.56" from="628816136#0" to="585341902" type="passenger"/>
    <trip id="171" depart="672.50" from="615671500#0" to="1206223944" type="passenger"/>
    <trip id="172" depart="676.43" from="585341901#1" to="-651818430#3" type="passenger"/>
    <trip id="173" depart="680.36" from="-788296726#0" to="619147738#1" type="passenger"/>
    <trip id="174" depart="684.29" from="619147736" to="-516948900#4" type="passenger"/>
    <trip id="175" depart="688.23" from="218926711#2" to="585341904#1" type="passenger"/>
    <trip id="176" depart="692.16" from="218926711#4" to="-770860552#2" type="passenger"/>
    <trip id="177" depart="696.09" from="585341904#1" to="619147738#1" type="passenger"/>
    <trip id="178" depart="700.02" from="770860548#4" to="628816140#2" type="passenger"/>
    <trip id="179" depart="703.96" from="198691704#2" to="-176728949" type="passenger"/>
    <trip id="180" depart="707.89" from="183272713#1" to="628816140#1" type="passenger"/>
    <trip id="181" depart="711.82" from="770860548#4" to="78628775#4" type="passenger"/>
    <trip id="182" depart="715.76" from="218926711#5" to="628816136#2" type="passenger"/>
    <trip id="183" depart="719.69" from="585341901#2" to="615671503" type="passenger"/>
    <trip id="184" depart="723.62" from="-770860565#1" to="-770860565#0" type="passenger"/>
    <trip id="185" depart="727.55" from="183272654" to="619147736" type="passenger"/>
    <trip id="186" depart="731.49" from="218926711#2" to="-770860548#2" type="passenger"/>
    <trip id="187" depart="735.42" from="438360329#0" to="-651818430#1" type="passenger"/>
    <trip id="188" depart="739.35" from="-770860565#0" to="183272713#0" type="passenger"/>
    <trip id="189" depart="743.28" from="628816136#0" to="218926711#2" type="passenger"/>
    <trip id="190" depart="747.22" from="619342756" to="770860548#3" type="passenger"/>
    <trip id="191" depart="751.15" from="1206223940" to="-516948900#8" type="passenger"/>
    <trip id="192" depart="755.08" from="-176728955#2" to="585341904#1" type="passenger"/>
    <trip id="193" depart="759.02" from="913233121" to="198691704#1" type="passenger"/>
    <trip id="194" depart="762.95" from="615671503" to="651818430#1" type="passenger"/>
    <trip id="195" depart="766.88" from="615671503" to="628816140#1" type="passenger"/>
    <trip id="196" depart="770.81" from="78628775#2" to="-770860552#1" type="passenger"/>
    <trip id="197" depart="774.75" from="-176728955#2" to="-770860542#1" type="passenger"/>
    <trip id="198" depart="778.68" from="-651818430#3" to="619147730#3" type="passenger"/>
    <trip id="199" depart="782.61" from="-770860548#4" to="615671505#0" type="passenger"/>
    <trip id="200" depart="786.54" from="770860542#1" to="78628775#5" type="passenger"/>
    <trip id="201" depart="790.48" from="176728955#0" to="619147736" type="passenger"/>
    <trip id="202" depart="794.41" from="78628775#3" to="218926711#5" type="passenger"/>
    <trip id="203" depart="798.34" from="619147737" to="-516948900#5" type="passenger"/>
    <trip id="204" depart="802.28" from="619147727" to="619147726#0" type="passenger"/>
    <trip id="205" depart="806.21" from="770860548#4" to="615671503" type="passenger"/>
    <trip id="206" depart="810.14" from="-651818430#2" to="796927124" type="passenger"/>
    <trip id="207" depart="814.07" from="628816136#2" to="198691704#1" type="passenger"/>
    <trip id="208" depart="818.01" from="218926711#6" to="218926711#1" type="passenger"/>
    <trip id="209" depart="821.94" from="516948900#3" to="183272713#1" type="passenger"/>
    <trip id="210" depart="825.87" from="770860548#3" to="770860548#2" type="passenger"/>
    <trip id="211" depart="829.80" from="615671500#1" to="770860548#2" type="passenger"/>
    <trip id="212" depart="833.74" from="619147736" to="438360329#0" type="passenger"/>
    <trip id="213" depart="837.67" from="585341901#1" to="516948900#8" type="passenger"/>
    <trip id="214" depart="841.60" from="289213613#0" to="628816136#0" type="passenger"/>
    <trip id="215" depart="845.54" from="770860548#1" to="-628816136#0" type="passenger"/>
    <trip id="216" depart="849.47" from="770860552#2" to="-788296726#1" type="passenger"/>
    <trip id="217" depart="853.40" from="333557072#2" to="615671505#0" type="passenger"/>
    <trip id="218" depart="857.33" from="-770860565#0" to="651818430#3" type="passenger"/>
    <trip id="219" depart="861.27" from="183272654" to="770860552#2" type="passenger"/>
    <trip id="220" depart="865.20" from="619147736" to="1206223944" type="passenger"/>
    <trip id="221" depart="869.13" from="-176728955#1" to="78628775#3" type="passenger"/>
    <trip id="222" depart="873.06" from="516948900#0" to="628816140#1" type="passenger"/>
    <trip id="223" depart="877.00" from="619147727" to="619147727" type="passenger"/>
    <trip id="224" depart="880.93" from="516948900#0" to="651818430#2" type="passenger"/>
    <trip id="225" depart="884.86" from="-628816140#2" to="-770860565#0" type="passenger"/>
    <trip id="226" depart="888.80" from="585341904#0" to="516948900#5" type="passenger"/>
    <trip id="227" depart="892.73" from="516948900#8" to="333557072#2" type="passenger"/>
    <trip id="228" depart="896.66" from="619147736" to="1206223943" type="passenger"/>
    <trip id="229" depart="900.59" from="1206223940" to="-651818430#1" type="passenger"/>
    <trip id="230" depart="904.53" from="585341901#1" to="628816140#2" type="passenger"/>
    <trip id="231" depart="908.46" from="-770860551" to="-770860565#0" type="passenger"/>
    <trip id="232" depart="912.39" from="1206223945" to="-628816136#1" type="passenger"/>
    <trip id="233" depart="916.32" from="-770860552#1" to="-770860565#1" type="passenger"/>
    <trip id="234" depart="920.26" from="-770860549" to="-176728951" type="passenger"/>
    <trip id="235" depart="924.19" from="585341901#1" to="1206223944" type="passenger"/>
    <trip id="236" depart="928.12" from="770860552#1" to="585341901#1" type="passenger"/>
    <trip id="237" depart="932.06" from="770860552#1" to="615671500#0" type="passenger"/>
    <trip id="238" depart="935.99" from="438360329#0" to="438360329#1" type="passenger"/>
    <trip id="239" depart="939.92" from="-770860551" to="-516948900#3" type="passenger"/>
    <trip id="240" depart="943.85" from="78628775#0" to="516948900#5" type="passenger"/>
    <trip id="241" depart="947.79" from="770860542#1" to="218926711#5" type="passenger"/>
    <trip id="242" depart="951.72" from="628816136#0" to="615671503" type="passenger"/>
    <trip id="243" depart="955.65" from="289213613#3" to="770860551" type="passenger"/>
    <trip id="244" depart="959.58" from="796927124" to="176728955#2" type="passenger"/>
    <trip id="245" depart="963.52" from="585341917" to="615671505#0" type="passenger"/>
    <trip id="246" depart="967.45" from="-770860552#2" to="-770860552#2" type="passenger"/>
    <trip id="247" depart="971.38" from="-770860548#4" to="-516948900#5" type="passenger"/>
    <trip id="248" depart="975.32" from="585341908#0" to="176728955#1" type="passenger"/>
    <trip id="249" depart="979.25" from="619147727" to="78628775#0" type="passenger"/>
    <trip id="250" depart="983.18" from="218926711#6" to="585341904#1" type="passenger"/>
    <trip id="251" depart="987.11" from="770860548#1" to="-516948900#5" type="passenger"/>
    <trip id="252" depart="991.05" from="-770860548#3" to="176728955#2" type="passenger"/>
    <trip id="253" depart="994.98" from="1206223947" to="-651818430#1" type="passenger"/>
    <trip id="254" depart="998.91" from="619147727" to="619147738#1" type="passenger"/>
    <trip id="255" depart="1002.84" from="78628775#2" to="585341901#2" type="passenger"/>
    <trip id="256" depart="1006.78" from="516948900#2" to="-516948900#8" type="passenger"/>
    <trip id="257" depart="1010.71" from="176728955#1" to="1206223939" type="passenger"/>
    <trip id="258" depart="1014.64" from="-628816140#1" to="78628775#5" type="passenger"/>
    <trip id="259" depart="1018.58" from="770860548#2" to="615671500#0" type="passenger"/>
    <trip id="260" depart="1022.51" from="78628775#3" to="919984684" type="passenger"/>
    <trip id="261" depart="1026.44" from="619147726#0" to="1206223943" type="passenger"/>
    <trip id="262" depart="1030.37" from="438360329#0" to="619147728" type="passenger"/>
    <trip id="263" depart="1034.31" from="585341904#1" to="619147726#1" type="passenger"/>
    <trip id="264" depart="1038.24" from="516948900#2" to="-628816136#0" type="passenger"/>
    <trip id="265" depart="1042.17" from="183272713#0" to="183272713#0" type="passenger"/>
    <trip id="266" depart="1046.10" from="619147726#0" to="770860551" type="passenger"/>
    <trip id="267" depart="1050.04" from="183272574#1" to="619147738#1" type="passenger"/>
    <trip id="268" depart="1053.97" from="1206223947" to="78628775#3" type="passenger"/>
    <trip id="269" depart="1057.90" from="333557072#0" to="183272574#1" type="passenger"/>
    <trip id="270" depart="1061.84" from="176728955#1" to="788296726#0" type="passenger"/>
    <trip id="271" depart="1065.77" from="218926711#2" to="585341902" type="passenger"/>
    <trip id="272" depart="1069.70" from="796927124" to="619147728" type="passenger"/>
    <trip id="273" depart="1073.63" from="-770860551" to="218926711#0" type="passenger"/>
    <trip id="274" depart="1077.57" from="619342756" to="619147726#0" type="passenger"/>
    <trip id="275" depart="1081.50" from="628816136#0" to="-770860552#1" type="passenger"/>
    <trip id="276" depart="1085.43" from="585341901#2" to="78628775#0" type="passenger"/>
    <trip id="277" depart="1089.36" from="289213613#0" to="619147738#1" type="passenger"/>
    <trip id="278" depart="1093.30" from="-651818430#2" to="788296726#0" type="passenger"/>
    <trip id="279" depart="1097.23" from="585341909" to="-788296726#0" type="passenger"/>
    <trip id="280" depart="1101.16" from="585341901#3" to="-628816136#0" type="passenger"/>
    <trip id="281" depart="1105.10" from="770860548#1" to="585341901#2" type="passenger"/>
    <trip id="282" depart="1109.03" from="619147737" to="585341901#3" type="passenger"/>
    <trip id="283" depart="1112.96" from="788296726#1" to="-788296726#1" type="passenger"/>
    <trip id="284" depart="1116.89" from="585341901#3" to="218926711#2" type="passenger"/>
    <trip id="285" depart="1120.83" from="777881147#2" to="585341901#3" type="passenger"/>
    <trip id="286" depart="1124.76" from="770860552#2" to="770860552#1" type="passenger"/>
    <trip id="287" depart="1128.69" from="1206223945" to="651818430#2" type="passenger"/>
    <trip id="288" depart="1132.62" from="218926711#4" to="78628775#2" type="passenger"/>
    <trip id="289" depart="1136.56" from="516948900#3" to="770860548#2" type="passenger"/>
    <trip id="290" depart="1140.49" from="1206223945" to="176728955#1" type="passenger"/>
    <trip id="291" depart="1144.42" from="585341904#1" to="919984684" type="passenger"/>
    <trip id="292" depart="1148.36" from="516948900#0" to="-770860542#1" type="passenger"/>
    <trip id="293" depart="1152.29" from="585341901#1" to="198691704#1" type="passenger"/>
    <trip id="294" depart="1156.22" from="585341901#3" to="585341904#1" type="passenger"/>
    <trip id="295" depart="1160.15" from="333557072#0" to="183272654" type="passenger"/>
    <trip id="296" depart="1164.09" from="-770860551" to="619147738#1" type="passenger"/>
    <trip id="297" depart="1168.02" from="628816136#2" to="-516948900#2" type="passenger"/>
    <trip id="298" depart="1171.95" from="619147739#1" to="619147739#1" type="passenger"/>
    <trip id="299" depart="1175.88" from="651818430#3" to="218926711#4" type="passenger"/>
    <trip id="300" depart="1179.82" from="788296726#1" to="585341901#1" type="passenger"/>
    <trip id="301" depart="1183.75" from="585341904#1" to="770860552#1" type="passenger"/>
    <trip id="302" depart="1187.68" from="770860552#1" to="438360329#1" type="passenger"/>
    <trip id="303" depart="1191.62" from="619147738#0" to="218926711#6" type="passenger"/>
    <trip id="304" depart="1195.55" from="615671503" to="-770860548#1" type="passenger"/>
    <trip id="305" depart="1199.48" from="438360329#0" to="788296726#0" type="passenger"/>
    <trip id="306" depart="1203.41" from="183272654" to="619147738#1" type="passenger"/>
    <trip id="307" depart="1207.35" from="615671502" to="770860549" type="passenger"/>
    <trip id="308" depart="1211.28" from="770860548#4" to="770860551" type="passenger"/>
    <trip id="309" depart="1215.21" from="198691704#2" to="183272654" type="passenger"/>
    <trip id="310" depart="1219.14" from="619147738#0" to="628816140#1" type="passenger"/>
    <trip id="311" depart="1223.08" from="770860552#1" to="-516948900#0" type="passenger"/>
    <trip id="312" depart="1227.01" from="777881147#2" to="919984684" type="passenger"/>
    <trip id="313" depart="1230.94" from="-628816140#2" to="619147726#1" type="passenger"/>
    <trip id="314" depart="1234.88" from="770860552#1" to="438360329#1" type="passenger"/>
    <trip id="315" depart="1238.81" from="176728949" to="218926711#1" type="passenger"/>
    <trip id="316" depart="1242.74" from="-770860548#1" to="585341904#0" type="passenger"/>
    <trip id="317" depart="1246.67" from="-770860548#4" to="-516948900#8" type="passenger"/>
    <trip id="318" depart="1250.61" from="770860552#1" to="615671505#1" type="passenger"/>
    <trip id="319" depart="1254.54" from="1206223940" to="1206223939" type="passenger"/>
    <trip id="320" depart="1258.47" from="-176728955#1" to="770860542#1" type="passenger"/>
    <trip id="321" depart="1262.40" from="777881147#0" to="619147736" type="passenger"/>
    <trip id="322" depart="1266.34" from="-770860548#2" to="438360329#1" type="passenger"/>
    <trip id="323" depart="1270.27" from="183272713#0" to="615671500#1" type="passenger"/>
    <trip id="324" depart="1274.20" from="615671500#1" to="333557072#2" type="passenger"/>