<?xml version='1.0' encoding='utf-8'?>
<configuration>
  <input>
    <net-file value="/Users/junlee/Desktop/2026-1/js/result/tradeoff_pet_top12_seed12_60min_20260417_025716/sumo_nets/cw_5831/network.net.xml" />
    <route-files value="/Users/junlee/Desktop/2026-1/js/result/tradeoff_pet_top12_seed12_60min_20260417_025716/sumo_nets/cw_5831/routes_seed50.rou.xml,/Users/junlee/Desktop/2026-1/js/result/tradeoff_pet_top12_seed12_60min_20260417_025716/sumo_nets/cw_5831/peds_seed50.rou.xml" />
  </input>
  <time>
    <begin value="0" />
    <end value="3900" />
    <step-length value="1.0" />
  </time>
  <processing>
    <time-to-teleport value="300" />
    <pedestrian.model value="striping" />
  </processing>
  <report>
    <no-step-log value="true" />
    <duration-log.disable value="true" />
  </report>
</configuration>