<?xml version="1.0" encoding="UTF-8"?>

<!-- generated on 2026-04-15 23:23:11.163439 by Eclipse SUMO randomTrips.py v1.26.0
<configuration>
    <net-file value="/Users/junlee/Desktop/2026-1/js/result/report_top12_seed4_2h/sumo_nets/cw_8430/network.net.xml"/>
    <output-trip-file value="/Users/junlee/Desktop/2026-1/js/result/report_top12_seed4_2h/sumo_nets/cw_8430/routes_seed45.trips.xml"/>
    <route-file value="/Users/junlee/Desktop/2026-1/js/result/report_top12_seed4_2h/sumo_nets/cw_8430/routes_seed45.rou.xml"/>
    <vehicle-class value="passenger"/>
    <seed value="45"/>
    <end value="1800.0"/>
    <period value="3.262691553859477"/>
</configuration>
-->

<routes xmlns:xsi="http://www.w3.org/2001/XMLSchema-instance" xsi:noNamespaceSchemaLocation="http://sumo.dlr.de/xsd/routes_file.xsd">
    <vType id="passenger" vClass="passenger"/>
    <trip id="0" depart="0.00" from="-381458600#0" to="117770556#2" type="passenger"/>
    <trip id="1" depart="3.26" from="-218960891#3" to="-381746311" type="passenger"/>
    <trip id="2" depart="6.53" from="-218960891#1" to="-218681380#2" type="passenger"/>
    <trip id="3" depart="9.79" from="-381458603#0" to="-381452118#1" type="passenger"/>
    <trip id="4" depart="13.05" from="-381746303#1" to="381458592#0" type="passenger"/>
    <trip id="5" depart="16.31" from="-218681380#7" to="381452118#0" type="passenger"/>
    <trip id="6" depart="19.58" from="-381452118#5" to="381458603#1" type="passenger"/>
    <trip id="7" depart="22.84" from="381458592#4" to="-381458583#1" type="passenger"/>
    <trip id="8" depart="26.10" from="381746325#1" to="381458583#1" type="passenger"/>
    <trip id="9" depart="29.36" from="-218960891#2" to="-519097166#0" type="passenger"/>
    <trip id="10" depart="32.63" from="381458583#1" to="519097167#0" type="passenger"/>
    <trip id="11" depart="35.89" from="-381452165#0" to="-381458592#5" type="passenger"/>
    <trip id="12" depart="39.15" from="381458603#1" to="913718470" type="passenger"/>
    <trip id="13" depart="42.41" from="-218960891#5" to="-218960891#4" type="passenger"/>
    <trip id="14" depart="45.68" from="381458598" to="-381746303#0" type="passenger"/>
    <trip id="15" depart="48.94" from="-420187963" to="420103662#1" type="passenger"/>
    <trip id="16" depart="52.20" from="381458593" to="381452123#1" type="passenger"/>
    <trip id="17" depart="55.47" from="420187962#0" to="381458583#5" type="passenger"/>
    <trip id="18" depart="58.73" from="381746303#1" to="381452118#6" type="passenger"/>
    <trip id="19" depart="61.99" from="519097167#0" to="458731949" type="passenger"/>
    <trip id="20" depart="65.25" from="-381746451#1" to="381452118#1" type="passenger"/>
    <trip id="21" depart="68.52" from="-218681380#3" to="117770556#4" type="passenger"/>
    <trip id="22" depart="71.78" from="381452118#6" to="-381458608#0" type="passenger"/>
    <trip id="23" depart="75.04" from="-519097167#1" to="381746311" type="passenger"/>
    <trip id="24" depart="78.30" from="-381452118#6" to="-920025287#0" type="passenger"/>
    <trip id="25" depart="81.57" from="-218960891#4" to="-420187962#2" type="passenger"/>
    <trip id="26" depart="84.83" from="420187962#2" to="381452100#0" type="passenger"/>
    <trip id="27" depart="88.09" from="-218681380#5" to="381746325#1" type="passenger"/>
    <trip id="28" depart="91.36" from="381452165#0" to="218681380#4" type="passenger"/>
    <trip id="29" depart="94.62" from="-381458603#1" to="-381741927" type="passenger"/>
    <trip id="30" depart="97.88" from="-381452165#2" to="381452118#0" type="passenger"/>
    <trip id="31" depart="101.14" from="-218910324#2" to="519097168#2" type="passenger"/>
    <trip id="32" depart="104.41" from="-218960891#7" to="381452118#0" type="passenger"/>
    <trip id="33" depart="107.67" from="218960891#5" to="-420103662#0" type="passenger"/>
    <trip id="34" depart="110.93" from="-381458600#1" to="-519097168#4" type="passenger"/>
    <trip id="35" depart="114.19" from="-381746308" to="920025286" type="passenger"/>
    <trip id="36" depart="117.46" from="381452126#0" to="218681380#3" type="passenger"/>
    <trip id="37" depart="120.72" from="381452165#1" to="117770556#3" type="passenger"/>
    <trip id="38" depart="123.98" from="-381452118#7" to="-218681380#4" type="passenger"/>
    <trip id="39" depart="127.24" from="920025286" to="381746313" type="passenger"/>
    <trip id="40" depart="130.51" from="-218960891#5" to="381452100#0" type="passenger"/>
    <trip id="41" depart="133.77" from="381458608#1" to="420187962#3" type="passenger"/>
    <trip id="42" depart="137.03" from="-218910324#5" to="-381452118#5" type="passenger"/>
    <trip id="43" depart="140.30" from="-420314177" to="218960891#7" type="passenger"/>
    <trip id="44" depart="143.56" from="-218960891#3" to="381452183#1" type="passenger"/>
    <trip id="45" depart="146.82" from="381458598" to="-520307305#0" type="passenger"/>
    <trip id="46" depart="150.08" from="381746325#1" to="-420187962#3" type="passenger"/>
    <trip id="47" depart="153.35" from="381746313" to="-420187962#2" type="passenger"/>
    <trip id="48" depart="156.61" from="-519097166#0" to="-420187962#1" type="passenger"/>
    <trip id="49" depart="159.87" from="381458586" to="420187962#1" type="passenger"/>
    <trip id="50" depart="163.13" from="-218960891#1" to="218960891#5" type="passenger"/>
    <trip id="51" depart="166.40" from="381746315" to="381452183#0" type="passenger"/>
    <trip id="52" depart="169.66" from="-381458587" to="-420103662#1" type="passenger"/>
    <trip id="53" depart="172.92" from="420187962#3" to="-381458583#2" type="passenger"/>
    <trip id="54" depart="176.19" from="913717725" to="-420314177" type="passenger"/>
    <trip id="55" depart="179.45" from="218681380#7" to="381452185#2" type="passenger"/>
    <trip id="56" depart="182.71" from="381452185#1" to="218960891#5" type="passenger"/>
    <trip id="57" depart="185.97" from="420187962#0" to="381452118#5" type="passenger"/>
    <trip id="58" depart="189.24" from="519097167#1" to="381452118#7" type="passenger"/>
    <trip id="59" depart="192.50" from="218960891#7" to="-218910324#3" type="passenger"/>
    <trip id="60" depart="195.76" from="519097166#0" to="-381458590" type="passenger"/>
    <trip id="61" depart="199.02" from="-381458583#5" to="-218910324#2" type="passenger"/>
    <trip id="62" depart="202.29" from="381452118#5" to="-420187962#0" type="passenger"/>
    <trip id="63" depart="205.55" from="381452126#1" to="381746303#1" type="passenger"/>
    <trip id="64" depart="208.81" from="520307305#0" to="381458608#1" type="passenger"/>
    <trip id="65" depart="212.07" from="381746315" to="-420187962#2" type="passenger"/>
    <trip id="66" depart="215.34" from="-218910324#2" to="381458592#5" type="passenger"/>
    <trip id="67" depart="218.60" from="920025287#4" to="-920025287#1" type="passenger"/>
    <trip id="68" depart="221.86" from="458731949" to="218910324#5" type="passenger"/>
    <trip id="69" depart="225.13" from="-420187963" to="381746308" type="passenger"/>
    <trip id="70" depart="228.39" from="-218910324#4" to="-420103662#0" type="passenger"/>
    <trip id="71" depart="231.65" from="381458583#0" to="-218960891#3" type="passenger"/>
    <trip id="72" depart="234.91" from="218960891#1" to="-420187962#3" type="passenger"/>
    <trip id="73" depart="238.18" from="-381458583#2" to="-458731949" type="passenger"/>
    <trip id="74" depart="241.44" from="381458592#5" to="381452126#1" type="passenger"/>
    <trip id="75" depart="244.70" from="375125202" to="381458600#0" type="passenger"/>
    <trip id="76" depart="247.96" from="-519097167#0" to="218960891#3" type="passenger"/>
    <trip id="77" depart="251.23" from="-218960891#6" to="381452123#1" type="passenger"/>
    <trip id="78" depart="254.49" from="381452165#2" to="381452118#1" type="passenger"/>
    <trip id="79" depart="257.75" from="381741964" to="920025287#2" type="passenger"/>
    <trip id="80" depart="261.02" from="381458592#0" to="920025287#0" type="passenger"/>
    <trip id="81" depart="264.28" from="381452165#0" to="-381458600#1" type="passenger"/>
    <trip id="82" depart="267.54" from="420103662#1" to="381452126#1" type="passenger"/>
    <trip id="83" depart="270.80" from="381452118#6" to="-381452123#0" type="passenger"/>
    <trip id="84" depart="274.07" from="218960891#3" to="-381746311" type="passenger"/>
    <trip id="85" depart="277.33" from="218960891#5" to="519097167#0" type="passenger"/>
    <trip id="86" depart="280.59" from="-420187962#3" to="-218681380#3" type="passenger"/>
    <trip id="87" depart="283.85" from="-381452118#0" to="218910324#0" type="passenger"/>
    <trip id="88" depart="287.12" from="381746325#0" to="-218910324#2" type="passenger"/>
    <trip id="89" depart="290.38" from="-519097167#1" to="-381746311" type="passenger"/>
    <trip id="90" depart="293.64" from="-920025287#0" to="381452118#1" type="passenger"/>
    <trip id="91" depart="296.90" from="218681380#3" to="-381458600#0" type="passenger"/>
    <trip id="92" depart="300.17" from="420187962#0" to="381741961" type="passenger"/>
    <trip id="93" depart="303.43" from="420317539" to="-381452118#3" type="passenger"/>
    <trip id="94" depart="306.69" from="218910324#2" to="-381458592#1" type="passenger"/>
    <trip id="95" depart="309.96" from="-218960891#6" to="519097167#1" type="passenger"/>
    <trip id="96" depart="313.22" from="381452165#0" to="-920025287#0" type="passenger"/>
    <trip id="97" depart="316.48" from="381458603#0" to="381746315" type="passenger"/>
    <trip id="98" depart="319.74" from="117770556#0" to="-381452100#0" type="passenger"/>
    <trip id="99" depart="323.01" from="458731949" to="218681380#1" type="passenger"/>
    <trip id="100" depart="326.27" from="-519097168#0" to="-381452185#1" type="passenger"/>
    <trip id="101" depart="329.53" from="218681380#7" to="381746451#1" type="passenger"/>
    <trip id="102" depart="332.79" from="519097168#2" to="-381452118#7" type="passenger"/>
    <trip id="103" depart="336.06" from="-381452118#0" to="920025287#3" type="passenger"/>
    <trip id="104" depart="339.32" from="218910324#0" to="381452118#3" type="passenger"/>
    <trip id="105" depart="342.58" from="381458583#0" to="-519097167#0" type="passenger"/>
    <trip id="106" depart="345.85" from="-458731949" to="381746451#1" type="passenger"/>
    <trip id="107" depart="349.11" from="381452118#6" to="-218681380#4" type="passenger"/>
    <trip id="108" depart="352.37" from="-218910324#0" to="381746311" type="passenger"/>
    <trip id="109" depart="355.63" from="375125202" to="381458592#0" type="passenger"/>
    <trip id="110" depart="358.90" from="218681380#2" to="381452185#2" type="passenger"/>
    <trip id="111" depart="362.16" from="-381746451#0" to="-420103662#1" type="passenger"/>
    <trip id="112" depart="365.42" from="-381746325#0" to="-381458608#0" type="passenger"/>
    <trip id="113" depart="368.68" from="520307305#1" to="420103662#1" type="passenger"/>
    <trip id="114" depart="371.95" from="519097168#1" to="381741961" type="passenger"/>
    <trip id="115" depart="375.21" from="381452123#0" to="913718470" type="passenger"/>
    <trip id="116" depart="378.47" from="381458598" to="375125202" type="passenger"/>
    <trip id="117" depart="381.73" from="-381746313" to="381452118#0" type="passenger"/>
    <trip id="118" depart="385.00" from="-519097168#1" to="-381452165#1" type="passenger"/>
    <trip id="119" depart="388.26" from="-381452126#0" to="-218960891#7" type="passenger"/>
    <trip id="120" depart="391.52" from="381452185#1" to="-420187962#1" type="passenger"/>
    <trip id="121" depart="394.79" from="920025287#2" to="519097166#0" type="passenger"/>
    <trip id="122" depart="398.05" from="-381458603#0" to="-218960891#7" type="passenger"/>
    <trip id="123" depart="401.31" from="381746313" to="381746315" type="passenger"/>
    <trip id="124" depart="404.57" from="-420187962#1" to="381458592#4" type="passenger"/>
    <trip id="125" depart="407.84" from="519097168#4" to="-520307305#0" type="passenger"/>
    <trip id="126" depart="411.10" from="-920025287#1" to="381452100#1" type="passenger"/>
    <trip id="127" depart="414.36" from="381746325#0" to="381452185#1" type="passenger"/>
    <trip id="128" depart="417.62" from="920025287#2" to="-381452118#7" type="passenger"/>
    <trip id="129" depart="420.89" from="-218960891#5" to="-381452118#1" type="passenger"/>
    <trip id="130" depart="424.15" from="519097168#4" to="-381458608#1" type="passenger"/>
    <trip id="131" depart="427.41" from="-218960891#1" to="-381452123#1" type="passenger"/>
    <trip id="132" depart="430.68" from="-218681380#4" to="218681380#7" type="passenger"/>
    <trip id="133" depart="433.94" from="381452123#0" to="-381458603#1" type="passenger"/>
    <trip id="134" depart="437.20" from="-218681380#3" to="-218910324#0" type="passenger"/>
    <trip id="135" depart="440.46" from="381452185#2" to="-218681380#0" type="passenger"/>
    <trip id="136" depart="443.73" from="-381458587" to="-520307305#0" type="passenger"/>
    <trip id="137" depart="446.99" from="-519097167#1" to="519097168#0" type="passenger"/>
    <trip id="138" depart="450.25" from="519097168#2" to="117770556#4" type="passenger"/>
    <trip id="139" depart="453.51" from="381452123#1" to="-218910324#3" type="passenger"/>
    <trip id="140" depart="456.78" from="-381452183#0" to="381746304#1" type="passenger"/>
    <trip id="141" depart="460.04" from="-920025287#4" to="117770556#3" type="passenger"/>
    <trip id="142" depart="463.30" from="381746313" to="381452123#0" type="passenger"/>
    <trip id="143" depart="466.56" from="-381452165#0" to="-920025287#2" type="passenger"/>
    <trip id="144" depart="469.83" from="381746451#0" to="-381746325#0" type="passenger"/>
    <trip id="145" depart="473.09" from="520307305#1" to="-381452185#1" type="passenger"/>
    <trip id="146" depart="476.35" from="-458731949" to="-381452185#0" type="passenger"/>
    <trip id="147" depart="479.62" from="-381458603#0" to="-381458586" type="passenger"/>
    <trip id="148" depart="482.88" from="381452126#1" to="381458592#1" type="passenger"/>
    <trip id="149" depart="486.14" from="420187962#1" to="-381452118#6" type="passenger"/>
    <trip id="150" depart="489.40" from="920025287#4" to="381452165#2" type="passenger"/>
    <trip id="151" depart="492.67" from="-381458593" to="381452126#1" type="passenger"/>
    <trip id="152" depart="495.93" from="-381458600#0" to="-218960891#4" type="passenger"/>
    <trip id="153" depart="499.19" from="-381458583#1" to="381746325#1" type="passenger"/>
    <trip id="154" depart="502.45" from="-420187962#1" to="381452123#0" type="passenger"/>
    <trip id="155" depart="505.72" from="-920025287#2" to="-381458592#0" type="passenger"/>
    <trip id="156" depart="508.98" from="-519097168#4" to="-381458586" type="passenger"/>
    <trip id="157" depart="512.24" from="-519097168#2" to="-381452185#1" type="passenger"/>
    <trip id="158" depart="515.51" from="-381452118#3" to="381458603#1" type="passenger"/>
    <trip id="159" depart="518.77" from="-381746303#1" to="381452165#2" type="passenger"/>
    <trip id="160" depart="522.03" from="519097168#1" to="519097166#0" type="passenger"/>
    <trip id="161" depart="525.29" from="381746313" to="117770556#3" type="passenger"/>
    <trip id="162" depart="528.56" from="218681380#7" to="-218681380#3" type="passenger"/>
    <trip id="163" depart="531.82" from="381452185#0" to="218681380#1" type="passenger"/>
    <trip id="164" depart="535.08" from="-381746325#0" to="381746325#0" type="passenger"/>
    <trip id="165" depart="538.34" from="381458598" to="381458603#0" type="passenger"/>
    <trip id="166" depart="541.61" from="-381746325#0" to="218681380#2" type="passenger"/>
    <trip id="167" depart="544.87" from="381458608#0" to="420314177" type="passenger"/>
    <trip id="168" depart="548.13" from="117770556#4" to="381458583#1" type="passenger"/>
    <trip id="169" depart="551.39" from="218960891#3" to="-381458590" type="passenger"/>
    <trip id="170" depart="554.66" from="420187962#1" to="218910324#0" type="passenger"/>
    <trip id="171" depart="557.92" from="-381452165#0" to="218960891#3" type="passenger"/>
    <trip id="172" depart="561.18" from="420103662#0" to="-381452126#0" type="passenger"/>
    <trip id="173" depart="564.45" from="-381452126#1" to="381452118#3" type="passenger"/>
    <trip id="174" depart="567.71" from="-381452118#5" to="381458592#4" type="passenger"/>
    <trip id="175" depart="570.97" from="381452118#1" to="-920025287#3" type="passenger"/>
    <trip id="176" depart="574.23" from="-920025287#3" to="920025287#0" type="passenger"/>
    <trip id="177" depart="577.50" from="-381741961" to="218910324#5" type="passenger"/>
    <trip id="178" depart="580.76" from="-519097168#4" to="913717725" type="passenger"/>
    <trip id="179" depart="584.02" from="-420187962#3" to="-218681380#0" type="passenger"/>
    <trip id="180" depart="587.28" from="-920025287#1" to="218910324#1" type="passenger"/>
    <trip id="181" depart="590.55" from="381458593" to="381452118#3" type="passenger"/>
    <trip id="182" depart="593.81" from="420187962#3" to="-381458592#2" type="passenger"/>
    <trip id="183" depart="597.07" from="381452123#0" to="381746308" type="passenger"/>
    <trip id="184" depart="600.34" from="420314177" to="381458608#1" type="passenger"/>
    <trip id="185" depart="603.60" from="381452165#1" to="-519097167#1" type="passenger"/>
    <trip id="186" depart="606.86" from="519097168#0" to="381458587" type="passenger"/>
    <trip id="187" depart="610.12" from="-519097168#4" to="519097168#1" type="passenger"/>
    <trip id="188" depart="613.39" from="420187962#2" to="920025286" type="passenger"/>
    <trip id="189" depart="616.65" from="520307305#1" to="519097168#4" type="passenger"/>
    <trip id="190" depart="619.91" from="-519097168#0" to="-458731949" type="passenger"/>
    <trip id="191" depart="623.17" from="920025287#0" to="-218681380#5" type="passenger"/>
    <trip id="192" depart="626.44" from="520307305#1" to="381746304#1" type="passenger"/>
    <trip id="193" depart="629.70" from="-381452183#0" to="381452118#1" type="passenger"/>
    <trip id="194" depart="632.96" from="-420187962#3" to="381458592#0" type="passenger"/>
    <trip id="195" depart="636.22" from="519097167#1" to="381458592#1" type="passenger"/>
    <trip id="196" depart="639.49" from="381746325#0" to="-381458603#1" type="passenger"/>
    <trip id="197" depart="642.75" from="218681380#3" to="-920025287#2" type="passenger"/>
    <trip id="198" depart="646.01" from="519097168#4" to="-381458583#2" type="passenger"/>
    <trip id="199" depart="649.28" from="381458592#0" to="381452165#1" type="passenger"/>
    <trip id="200" depart="652.54" from="-381746451#0" to="519097168#0" type="passenger"/>
    <trip id="201" depart="655.80" from="458731949" to="-381458593" type="passenger"/>
    <trip id="202" depart="659.06" from="-381746304#1" to="381452118#5" type="passenger"/>
    <trip id="203" depart="662.33" from="-381452118#3" to="-381458603#1" type="passenger"/>
    <trip id="204" depart="665.59" from="-381452100#1" to="381452185#2" type="passenger"/>
    <trip id="205" depart="668.85" from="218681380#1" to="-218960891#6" type="passenger"/>
    <trip id="206" depart="672.11" from="381746315" to="218910324#1" type="passenger"/>
    <trip id="207" depart="675.38" from="381452165#0" to="-381458592#2" type="passenger"/>
    <trip id="208" depart="678.64" from="381452185#1" to="-381746304#1" type="passenger"/>
    <trip id="209" depart="681.90" from="920025287#1" to="-218960891#0" type="passenger"/>
    <trip id="210" depart="685.17" from="-218910324#1" to="-420187962#3" type="passenger"/>
    <trip id="211" depart="688.43" from="-381452118#5" to="-381452118#6" type="passenger"/>
    <trip id="212" depart="691.69" from="381458600#0" to="218910324#2" type="passenger"/>
    <trip id="213" depart="694.95" from="381458583#0" to="-381452165#1" type="passenger"/>
    <trip id="214" depart="698.22" from="381452123#1" to="381458593" type="passenger"/>
    <trip id="215" depart="701.48" from="-218960891#4" to="-381452165#1" type="passenger"/>
    <trip id="216" depart="704.74" from="-920025287#4" to="-381746304#0" type="passenger"/>
    <trip id="217" depart="708.00" from="381746325#1" to="218910324#4" type="passenger"/>
    <trip id="218" depart="711.27" from="117770556#1" to="-420187962#3" type="passenger"/>
    <trip id="219" depart="714.53" from="-381452126#1" to="-381452183#0" type="passenger"/>
    <trip id="220" depart="717.79" from="-381458600#0" to="-218681380#2" type="passenger"/>
    <trip id="221" depart="721.05" from="-381452126#1" to="218960891#4" type="passenger"/>
    <trip id="222" depart="724.32" from="218681380#4" to="117770556#4" type="passenger"/>
    <trip id="223" depart="727.58" from="920025287#4" to="218681380#4" type="passenger"/>
    <trip id="224" depart="730.84" from="381458603#0" to="-381741927" type="passenger"/>
    <trip id="225" depart="734.11" from="381746303#0" to="218681380#7" type="passenger"/>
    <trip id="226" depart="737.37" from="420103662#0" to="913717725" type="passenger"/>
    <trip id="227" depart="740.63" from="-381452185#1" to="420187962#2" type="passenger"/>
    <trip id="228" depart="743.89" from="381452123#0" to="420187962#3" type="passenger"/>
    <trip id="229" depart="747.16" from="-218910324#1" to="381746313" type="passenger"/>
    <trip id="230" depart="750.42" from="381458593" to="381746325#0" type="passenger"/>
    <trip id="231" depart="753.68" from="-381458603#0" to="-381746303#1" type="passenger"/>
    <trip id="232" depart="756.94" from="-420187962#2" to="920025287#4" type="passenger"/>
    <trip id="233" depart="760.21" from="420314177" to="381458586" type="passenger"/>
    <trip id="234" depart="763.47" from="381746451#0" to="-218681380#3" type="passenger"/>
    <trip id="235" depart="766.73" from="381452118#6" to="420314177" type="passenger"/>
    <trip id="236" depart="770.00" from="-381746325#0" to="375125202" type="passenger"/>
    <trip id="237" depart="773.26" from="-218960891#6" to="381458592#4" type="passenger"/>
    <trip id="238" depart="776.52" from="-381458583#2" to="920025287#1" type="passenger"/>
    <trip id="239" depart="779.78" from="381452118#1" to="-218910324#2" type="passenger"/>
    <trip id="240" depart="783.05" from="218910324#2" to="-381452118#3" type="passenger"/>
    <trip id="241" depart="786.31" from="-381746308" to="381452126#1" type="passenger"/>
    <trip id="242" depart="789.57" from="-218960891#3" to="381746308" type="passenger"/>
    <trip id="243" depart="792.83" from="381452185#2" to="381452165#0" type="passenger"/>
    <trip id="244" depart="796.10" from="-381746304#1" to="-381452100#0" type="passenger"/>
    <trip id="245" depart="799.36" from="218910324#2" to="381452126#1" type="passenger"/>
    <trip id="246" depart="802.62" from="520307305#0" to="381452123#1" type="passenger"/>
    <trip id="247" depart="805.88" from="381458593" to="-920025287#1" type="passenger"/>
    <trip id="248" depart="809.15" from="-381458586" to="218910324#0" type="passenger"/>
    <trip id="249" depart="812.41" from="519097168#2" to="218910324#3" type="passenger"/>
    <trip id="250" depart="815.67" from="-218910324#3" to="381452118#3" type="passenger"/>
    <trip id="251" depart="818.94" from="381746451#0" to="117770556#1" type="passenger"/>
    <trip id="252" depart="822.20" from="381452185#1" to="-381452126#1" type="passenger"/>
    <trip id="253" depart="825.46" from="381452183#0" to="218910324#0" type="passenger"/>
    <trip id="254" depart="828.72" from="381741961" to="117770556#3" type="passenger"/>
    <trip id="255" depart="831.99" from="-920025287#1" to="-519097168#4" type="passenger"/>
    <trip id="256" depart="835.25" from="420187962#3" to="920025287#3" type="passenger"/>
    <trip id="257" depart="838.51" from="218910324#0" to="-381458592#2" type="passenger"/>
    <trip id="258" depart="841.77" from="381458592#4" to="-381458592#5" type="passenger"/>
    <trip id="259" depart="845.04" from="420314177" to="-218960891#7" type="passenger"/>
    <trip id="260" depart="848.30" from="-458731949" to="458731949" type="passenger"/>
    <trip id="261" depart="851.56" from="-218681380#7" to="381746308" type="passenger"/>
    <trip id="262" depart="854.83" from="381452118#0" to="381452185#2" type="passenger"/>
    <trip id="263" depart="858.09" from="-218910324#4" to="381458586" type="passenger"/>
    <trip id="264" depart="861.35" from="520307305#0" to="-218681380#3" type="passenger"/>
    <trip id="265" depart="864.61" from="-381458586" to="381746304#1" type="passenger"/>
    <trip id="266" depart="867.88" from="381741961" to="218960891#4" type="passenger"/>
    <trip id="267" depart="871.14" from="-381458583#5" to="381458608#0" type="passenger"/>
    <trip id="268" depart="874.40" from="-381458608#0" to="-381458586" type="passenger"/>
    <trip id="269" depart="877.66" from="-381458600#0" to="-381452126#1" type="passenger"/>
    <trip id="270" depart="880.93" from="-381452185#1" to="381458603#0" type="passenger"/>
    <trip id="271" depart="884.19" from="-920025287#1" to="-218681380#0" type="passenger"/>
    <trip id="272" depart="887.45" from="520307305#0" to="-381452126#0" type="passenger"/>
    <trip id="273" depart="890.71" from="-381458592#5" to="218681380#1" type="passenger"/>
    <trip id="274" depart="893.98" from="-381746451#1" to="519097167#1" type="passenger"/>
    <trip id="275" depart="897.24" from="381746304#0" to="420187962#0" type="passenger"/>
    <trip id="276" depart="900.50" from="117770556#3" to="-218960891#0" type="passenger"/>
    <trip id="277" depart="903.77" from="-381458592#2" to="-381452123#1" type="passenger"/>
    <trip id="278" depart="907.03" from="-218910324#1" to="-519097167#1" type="passenger"/>
    <trip id="279" depart="910.29" from="-381458592#5" to="-381458583#2" type="passenger"/>
    <trip id="280" depart="913.55" from="-218910324#0" to="-381458583#2" type="passenger"/>
    <trip id="281" depart="916.82" from="920025287#0" to="-381746304#1" type="passenger"/>
    <trip id="282" depart="920.08" from="381458583#2" to="-458731949" type="passenger"/>
    <trip id="283" depart="923.34" from="-381746311" to="-519097166#0" type="passenger"/>
    <trip id="284" depart="926.60" from="117770556#0" to="-519097167#0" type="passenger"/>
    <trip id="285" depart="929.87" from="519097168#1" to="-218960891#4" type="passenger"/>
    <trip id="286" depart="933.13" from="381746313" to="381458583#0" type="passenger"/>
    <trip id="287" depart="936.39" from="381746315" to="381458603#0" type="passenger"/>
    <trip id="288" depart="939.66" from="420103662#1" to="-218960891#3" type="passenger"/>
    <trip id="289" depart="942.92" from="-381746325#0" to="381452100#1" type="passenger"/>
    <trip id="290" depart="946.18" from="420103662#1" to="-218681380#1" type="passenger"/>
    <trip id="291" depart="949.44" from="-381746451#1" to="-381452185#1" type="passenger"/>
    <trip id="292" depart="952.71" from="-381458600#0" to="381458600#1" type="passenger"/>
    <trip id="293" depart="955.97" from="381452118#5" to="920025286" type="passenger"/>
    <trip id="294" depart="959.23" from="218960891#5" to="-218910324#3" type="passenger"/>
    <trip id="295" depart="962.49" from="-218960891#7" to="381458600#1" type="passenger"/>
    <trip id="296" depart="965.76" from="920025287#1" to="420187963" type="passenger"/>
    <trip id="297" depart="969.02" from="-218681380#2" to="381746304#0" type="passenger"/>
    <trip id="298" depart="972.28" from="520307305#1" to="-381458586" type="passenger"/>
    <trip id="299" depart="975.54" from="-381458592#0" to="-381452185#1" type="passenger"/>
    <trip id="300" depart="978.81" from="-519097167#1" to="381746451#1" type="passenger"/>
    <trip id="301" depart="982.07" from="381746311" to="-381452118#1" type="passenger"/>
    <trip id="302" depart="985.33" from="-381452118#0" to="381458603#1" type="passenger"/>
    <trip id="303" depart="988.60" from="420187962#0" to="381458603#0" type="passenger"/>
    <trip id="304" depart="991.86" from="-381458608#1" to="218681380#2" type="passenger"/>
    <trip id="305" depart="995.12" from="381746325#1" to="920025287#1" type="passenger"/>
    <trip id="306" depart="998.38" from="-519097167#1" to="218960891#7" type="passenger"/>
    <trip id="307" depart="1001.65" from="381746303#1" to="519097168#2" type="passenger"/>
    <trip id="308" depart="1004.91" from="-218960891#7" to="-381452118#1" type="passenger"/>
    <trip id="309" depart="1008.17" from="-381746313" to="-381452185#2" type="passenger"/>
    <trip id="310" depart="1011.43" from="520307305#0" to="-381452185#0" type="passenger"/>
    <trip id="311" depart="1014.70" from="-420187962#3" to="-381458603#0" type="passenger"/>
    <trip id="312" depart="1017.96" from="381458608#0" to="381452123#1" type="passenger"/>
    <trip id="313" depart="1021.22" from="-420187962#2" to="-381458592#4" type="passenger"/>
    <trip id="314" depart="1024.49" from="381458603#0" to="-381452100#0" type="passenger"/>
    <trip id="315" depart="1027.75" from="420317539" to="-381452118#3" type="passenger"/>
    <trip id="316" depart="1031.01" from="519097168#4" to="-218681380#3" type="passenger"/>
    <trip id="317" depart="1034.27" from="-218681380#4" to="519097168#4" type="passenger"/>
    <trip id="318" depart="1037.54" from="-381452118#6" to="381458608#1" type="passenger"/>
    <trip id="319" depart="1040.80" from="218681380#1" to="-381452118#7" type="passenger"/>
    <trip id="320" depart="1044.06" from="-381458583#0" to="375125202" type="passenger"/>
    <trip id="321" depart="1047.32" from="420103662#1" to="-920025287#3" type="passenger"/>
    <trip id="322" depart="1050.59" from="-218960891#5" to="-920025287#1" type="passenger"/>
    <trip id="323" depart="1053.85" from="420317539" to="-218960891#0" type="passenger"/>