<?xml version="1.0" encoding="UTF-8"?>

<!-- generated on 2026-04-15 03:10:47.747260 by Eclipse SUMO randomTrips.py v1.26.0
<configuration>
    <net-file value="/Users/junlee/Desktop/2026-1/js/result/report_top12_seed4_2h/sumo_nets/cw_8340/network.net.xml"/>
    <output-trip-file value="/Users/junlee/Desktop/2026-1/js/result/report_top12_seed4_2h/sumo_nets/cw_8340/routes_seed44.trips.xml"/>
    <route-file value="/Users/junlee/Desktop/2026-1/js/result/report_top12_seed4_2h/sumo_nets/cw_8340/routes_seed44.rou.xml"/>
    <vehicle-class value="passenger"/>
    <seed value="44"/>
    <end value="7200.0"/>
    <period value="6.887506976121037"/>
</configuration>
-->

<routes xmlns:xsi="http://www.w3.org/2001/XMLSchema-instance" xsi:noNamespaceSchemaLocation="http://sumo.dlr.de/xsd/routes_file.xsd">
    <vType id="passenger" vClass="passenger"/>
    <trip id="0" depart="0.00" from="-420187959#9" to="218681380#2" type="passenger"/>
    <trip id="1" depart="6.89" from="420187959#4" to="-381452123#0" type="passenger"/>
    <trip id="2" depart="13.78" from="-381452143#1" to="-1279010544#0" type="passenger"/>
    <trip id="3" depart="20.66" from="-381452103#0" to="-117914352#0" type="passenger"/>
    <trip id="4" depart="27.55" from="-381452118#3" to="117914352#1" type="passenger"/>
    <trip id="5" depart="34.44" from="520307305#4" to="381452123#1" type="passenger"/>
    <trip id="6" depart="41.33" from="-420187959#5" to="-420317543#0" type="passenger"/>
    <trip id="7" depart="48.21" from="381452103#0" to="-381452104" type="passenger"/>
    <trip id="8" depart="55.10" from="-218681380#3" to="-37928420" type="passenger"/>
    <trip id="9" depart="61.99" from="520307305#0" to="-381452104" type="passenger"/>
    <trip id="10" depart="68.88" from="-520307305#1" to="420317540" type="passenger"/>
    <trip id="11" depart="75.76" from="-381452123#1" to="-381452170#1" type="passenger"/>
    <trip id="12" depart="82.65" from="-381452165#2" to="-218681380#2" type="passenger"/>
    <trip id="13" depart="89.54" from="381452118#4" to="420187959#1" type="passenger"/>
    <trip id="14" depart="96.43" from="-420317543#1" to="-218681380#0" type="passenger"/>
    <trip id="15" depart="103.31" from="381452126#1" to="381452165#1" type="passenger"/>
    <trip id="16" depart="110.20" from="239357573#3" to="218681380#2" type="passenger"/>
    <trip id="17" depart="117.09" from="-381452165#0" to="-520307305#1" type="passenger"/>
    <trip id="18" depart="123.98" from="381458592#0" to="381452123#0" type="passenger"/>
    <trip id="19" depart="130.86" from="-420187959#12" to="420187959#1" type="passenger"/>
    <trip id="20" depart="137.75" from="-381452118#3" to="-381452151" type="passenger"/>
    <trip id="21" depart="144.64" from="-117914345#1" to="381452167" type="passenger"/>
    <trip id="22" depart="151.53" from="381452118#1" to="218681380#2" type="passenger"/>
    <trip id="23" depart="158.41" from="520307305#5" to="-420187959#5" type="passenger"/>
    <trip id="24" depart="165.30" from="-381452126#0" to="-381452104" type="passenger"/>
    <trip id="25" depart="172.19" from="-420187959#11" to="420187959#11" type="passenger"/>
    <trip id="26" depart="179.08" from="37928420" to="-239357573#0" type="passenger"/>
    <trip id="27" depart="185.96" from="-420317543#1" to="-218681380#1" type="passenger"/>
    <trip id="28" depart="192.85" from="381452104" to="-381452118#0" type="passenger"/>
    <trip id="29" depart="199.74" from="-381452123#0" to="381452118#1" type="passenger"/>
    <trip id="30" depart="206.63" from="-381458592#1" to="381452118#2" type="passenger"/>
    <trip id="31" depart="213.51" from="-381452170#1" to="-117914345#0" type="passenger"/>
    <trip id="32" depart="220.40" from="-381452170#1" to="381452123#1" type="passenger"/>
    <trip id="33" depart="227.29" from="381452108" to="-381452126#0" type="passenger"/>
    <trip id="34" depart="234.18" from="420187959#11" to="420187959#11" type="passenger"/>
    <trip id="35" depart="241.06" from="-381452170#0" to="-239357573#1" type="passenger"/>
    <trip id="36" depart="247.95" from="117914352#0" to="420187959#4" type="passenger"/>
    <trip id="37" depart="254.84" from="244215552#0" to="218681380#2" type="passenger"/>
    <trip id="38" depart="261.73" from="-520307305#2" to="-381458592#1" type="passenger"/>
    <trip id="39" depart="268.61" from="-381458592#1" to="-420317540" type="passenger"/>
    <trip id="40" depart="275.50" from="218681380#1" to="420317544#1" type="passenger"/>
    <trip id="41" depart="282.39" from="-218681380#3" to="-381452170#0" type="passenger"/>
    <trip id="42" depart="289.28" from="420317544#2" to="381452118#3" type="passenger"/>
    <trip id="43" depart="296.16" from="381452118#2" to="420317540" type="passenger"/>
    <trip id="44" depart="303.05" from="381452170#0" to="-381458592#0" type="passenger"/>
    <trip id="45" depart="309.94" from="117914354" to="420187959#10" type="passenger"/>
    <trip id="46" depart="316.83" from="-381452165#1" to="381452126#0" type="passenger"/>
    <trip id="47" depart="323.71" from="218681380#2" to="-239357573#2" type="passenger"/>
    <trip id="48" depart="330.60" from="-381452170#1" to="-420317543#1" type="passenger"/>
    <trip id="49" depart="337.49" from="-381452118#1" to="420317544#2" type="passenger"/>
    <trip id="50" depart="344.38" from="-381452165#2" to="-381452165#0" type="passenger"/>
    <trip id="51" depart="351.26" from="244215552#0" to="1279010544#0" type="passenger"/>
    <trip id="52" depart="358.15" from="-520307305#4" to="420187959#9" type="passenger"/>
    <trip id="53" depart="365.04" from="420317544#1" to="381452123#0" type="passenger"/>
    <trip id="54" depart="371.93" from="520307305#1" to="381452165#2" type="passenger"/>
    <trip id="55" depart="378.81" from="381452123#0" to="-520307305#0" type="passenger"/>
    <trip id="56" depart="385.70" from="-381452143#1" to="381452123#1" type="passenger"/>
    <trip id="57" depart="392.59" from="381452151" to="-117914345#0" type="passenger"/>
    <trip id="58" depart="399.48" from="-381458600" to="218681380#1" type="passenger"/>
    <trip id="59" depart="406.36" from="-381452143#0" to="-381452118#1" type="passenger"/>
    <trip id="60" depart="413.25" from="-381452123#1" to="-117914352#0" type="passenger"/>
    <trip id="61" depart="420.14" from="-520307305#4" to="381452118#1" type="passenger"/>
    <trip id="62" depart="427.03" from="-381458592#2" to="-381452118#0" type="passenger"/>
    <trip id="63" depart="433.91" from="420317543#0" to="381452118#0" type="passenger"/>
    <trip id="64" depart="440.80" from="381452118#5" to="381452123#1" type="passenger"/>
    <trip id="65" depart="447.69" from="-420187959#1" to="244215552#1" type="passenger"/>
    <trip id="66" depart="454.58" from="-420187959#1" to="381452118#2" type="passenger"/>
    <trip id="67" depart="461.46" from="381458600" to="-117914354" type="passenger"/>
    <trip id="68" depart="468.35" from="381458592#0" to="-381452108" type="passenger"/>
    <trip id="69" depart="475.24" from="-117914345#1" to="-239357573#2" type="passenger"/>
    <trip id="70" depart="482.13" from="239357573#0" to="420187959#3" type="passenger"/>
    <trip id="71" depart="489.01" from="420317543#0" to="-381452118#4" type="passenger"/>
    <trip id="72" depart="495.90" from="-420317543#0" to="420317544#1" type="passenger"/>
    <trip id="73" depart="502.79" from="420187959#7" to="420187959#10" type="passenger"/>
    <trip id="74" depart="509.68" from="-381452165#2" to="-381458592#0" type="passenger"/>
    <trip id="75" depart="516.56" from="-381452118#2" to="-381452170#1" type="passenger"/>
    <trip id="76" depart="523.45" from="-420187959#8" to="381458592#1" type="passenger"/>
    <trip id="77" depart="530.34" from="381452118#3" to="-381452123#0" type="passenger"/>
    <trip id="78" depart="537.23" from="-381452118#5" to="-520307305#0" type="passenger"/>
    <trip id="79" depart="544.11" from="381458592#0" to="381452123#1" type="passenger"/>
    <trip id="80" depart="551.00" from="420187959#5" to="117914345#1" type="passenger"/>
    <trip id="81" depart="557.89" from="-420187959#5" to="-520307305#1" type="passenger"/>
    <trip id="82" depart="564.78" from="381458592#1" to="-381458592#0" type="passenger"/>
    <trip id="83" depart="571.66" from="-381452123#1" to="420187959#11" type="passenger"/>
    <trip id="84" depart="578.55" from="-520307305#2" to="381452118#1" type="passenger"/>
    <trip id="85" depart="585.44" from="-381452118#5" to="-218681380#1" type="passenger"/>
    <trip id="86" depart="592.33" from="-381452143#1" to="-420317544#1" type="passenger"/>
    <trip id="87" depart="599.21" from="-1279010544#0" to="-381458589#0" type="passenger"/>
    <trip id="88" depart="606.10" from="420317544#1" to="-420317544#2" type="passenger"/>
    <trip id="89" depart="612.99" from="-117914345#0" to="381458592#2" type="passenger"/>
    <trip id="90" depart="619.88" from="-381458592#2" to="-381452123#0" type="passenger"/>
    <trip id="91" depart="626.76" from="381452118#0" to="381452118#4" type="passenger"/>
    <trip id="92" depart="633.65" from="-420187959#1" to="381452143#0" type="passenger"/>
    <trip id="93" depart="640.54" from="420187959#5" to="-420187959#3" type="passenger"/>
    <trip id="94" depart="647.43" from="-520307305#4" to="-117914345#0" type="passenger"/>
    <trip id="95" depart="654.31" from="239357573#3" to="-381458592#2" type="passenger"/>
    <trip id="96" depart="661.20" from="381452118#2" to="381452170#0" type="passenger"/>
    <trip id="97" depart="668.09" from="-420187959#11" to="381452118#4" type="passenger"/>
    <trip id="98" depart="674.98" from="420317544#1" to="-381452118#5" type="passenger"/>
    <trip id="99" depart="681.86" from="381458592#1" to="-520307305#4" type="passenger"/>
    <trip id="100" depart="688.75" from="420317544#2" to="-239357573#2" type="passenger"/>
    <trip id="101" depart="695.64" from="-420187959#6" to="-381452118#5" type="passenger"/>
    <trip id="102" depart="702.53" from="-381452167" to="420187959#7" type="passenger"/>
    <trip id="103" depart="709.41" from="117914354" to="-420187959#5" type="passenger"/>
    <trip id="104" depart="716.30" from="520307305#1" to="-218681380#2" type="passenger"/>
    <trip id="105" depart="723.19" from="-117914352#0" to="381452170#1" type="passenger"/>
    <trip id="106" depart="730.08" from="218681380#2" to="420187959#11" type="passenger"/>
    <trip id="107" depart="736.96" from="-520307305#4" to="420317544#2" type="passenger"/>
    <trip id="108" depart="743.85" from="-420187959#10" to="-381452165#0" type="passenger"/>
    <trip id="109" depart="750.74" from="-117914354" to="-117914352#0" type="passenger"/>
    <trip id="110" depart="757.63" from="-117914345#1" to="381452165#0" type="passenger"/>
    <trip id="111" depart="764.51" from="381452118#0" to="-381452108" type="passenger"/>
    <trip id="112" depart="771.40" from="381458592#0" to="381452182" type="passenger"/>
    <trip id="113" depart="778.29" from="-420317543#1" to="381452123#1" type="passenger"/>
    <trip id="114" depart="785.18" from="-420187959#6" to="420317543#0" type="passenger"/>
    <trip id="115" depart="792.06" from="239357573#3" to="381452118#5" type="passenger"/>
    <trip id="116" depart="798.95" from="420317543#0" to="520307305#3" type="passenger"/>
    <trip id="117" depart="805.84" from="117914354" to="-381452104" type="passenger"/>
    <trip id="118" depart="812.73" from="117914352#1" to="420317540" type="passenger"/>
    <trip id="119" depart="819.61" from="-381452126#1" to="-381452170#0" type="passenger"/>
    <trip id="120" depart="826.50" from="-381452170#1" to="-381452165#0" type="passenger"/>
    <trip id="121" depart="833.39" from="381458592#2" to="218681380#1" type="passenger"/>
    <trip id="122" depart="840.28" from="381452123#1" to="-1279010544#0" type="passenger"/>
    <trip id="123" depart="847.16" from="-381452126#0" to="-117914352#0" type="passenger"/>
    <trip id="124" depart="854.05" from="381452123#1" to="-420317540" type="passenger"/>
    <trip id="125" depart="860.94" from="-117914345#1" to="-381452165#2" type="passenger"/>
    <trip id="126" depart="867.83" from="-420317543#0" to="-420317544#0" type="passenger"/>
    <trip id="127" depart="874.71" from="-420187959#10" to="-218681380#0" type="passenger"/>
    <trip id="128" depart="881.60" from="-420187959#10" to="381452118#0" type="passenger"/>
    <trip id="129" depart="888.49" from="1279010544#0" to="244215552#0" type="passenger"/>
    <trip id="130" depart="895.38" from="-381452118#3" to="-218681380#1" type="passenger"/>
    <trip id="131" depart="902.26" from="381452165#2" to="381452143#0" type="passenger"/>
    <trip id="132" depart="909.15" from="-381458592#2" to="381452165#0" type="passenger"/>
    <trip id="133" depart="916.04" from="-381458581#1" to="375125209" type="passenger"/>
    <trip id="134" depart="922.93" from="381452103#0" to="520307305#4" type="passenger"/>
    <trip id="135" depart="929.81" from="-520307305#3" to="-381452165#1" type="passenger"/>
    <trip id="136" depart="936.70" from="520307305#0" to="381452118#5" type="passenger"/>
    <trip id="137" depart="943.59" from="-420187959#10" to="-381458592#0" type="passenger"/>
    <trip id="138" depart="950.48" from="-117914352#0" to="-239357573#3" type="passenger"/>
    <trip id="139" depart="957.36" from="381452170#1" to="-381452165#1" type="passenger"/>
    <trip id="140" depart="964.25" from="420187959#5" to="117914345#0" type="passenger"/>
    <trip id="141" depart="971.14" from="-381452118#1" to="420187959#9" type="passenger"/>
    <trip id="142" depart="978.03" from="-381458592#2" to="420317543#0" type="passenger"/>
    <trip id="143" depart="984.91" from="218681380#1" to="-420317540" type="passenger"/>
    <trip id="144" depart="991.80" from="-420187959#12" to="-117914354" type="passenger"/>
    <trip id="145" depart="998.69" from="-420187959#8" to="381452118#0" type="passenger"/>
    <trip id="146" depart="1005.58" from="381452118#0" to="420317540" type="passenger"/>
    <trip id="147" depart="1012.46" from="-117914345#1" to="-381452118#4" type="passenger"/>
    <trip id="148" depart="1019.35" from="-520307305#3" to="381452118#2" type="passenger"/>
    <trip id="149" depart="1026.24" from="-420317540" to="381458581#1" type="passenger"/>
    <trip id="150" depart="1033.13" from="218681380#1" to="-117914345#0" type="passenger"/>
    <trip id="151" depart="1040.01" from="-420187959#6" to="381452118#1" type="passenger"/>
    <trip id="152" depart="1046.90" from="-381452167" to="-381452126#0" type="passenger"/>
    <trip id="153" depart="1053.79" from="381452118#1" to="-520307305#2" type="passenger"/>
    <trip id="154" depart="1060.68" from="-381458592#2" to="-218681380#0" type="passenger"/>
    <trip id="155" depart="1067.56" from="-381452118#5" to="-420317544#1" type="passenger"/>
    <trip id="156" depart="1074.45" from="-420317543#0" to="-420317544#1" type="passenger"/>
    <trip id="157" depart="1081.34" from="-420187959#9" to="381452167" type="passenger"/>
    <trip id="158" depart="1088.23" from="-381452103#0" to="381452118#0" type="passenger"/>
    <trip id="159" depart="1095.11" from="-420187959#5" to="381452182" type="passenger"/>
    <trip id="160" depart="1102.00" from="381452118#5" to="-381452126#0" type="passenger"/>
    <trip id="161" depart="1108.89" from="-381458600" to="117914354" type="passenger"/>
    <trip id="162" depart="1115.78" from="239357573#1" to="-381452165#1" type="passenger"/>
    <trip id="163" depart="1122.66" from="420187959#3" to="-381458592#1" type="passenger"/>
    <trip id="164" depart="1129.55" from="-375125209" to="420187959#5" type="passenger"/>
    <trip id="165" depart="1136.44" from="-381452118#5" to="-520307305#1" type="passenger"/>
    <trip id="166" depart="1143.33" from="-381452103#0" to="420317543#1" type="passenger"/>
    <trip id="167" depart="1150.21" from="-381458600" to="117914352#1" type="passenger"/>
    <trip id="168" depart="1157.10" from="520307305#2" to="-381452118#3" type="passenger"/>
    <trip id="169" depart="1163.99" from="-218681380#0" to="-381452118#0" type="passenger"/>
    <trip id="170" depart="1170.88" from="-381452167" to="-117914352#0" type="passenger"/>
    <trip id="171" depart="1177.76" from="-420187959#12" to="-239357573#0" type="passenger"/>
    <trip id="172" depart="1184.65" from="-117914354" to="381452165#2" type="passenger"/>
    <trip id="173" depart="1191.54" from="-381452165#1" to="420187959#6" type="passenger"/>
    <trip id="174" depart="1198.43" from="-1279010544#0" to="-381452118#0" type="passenger"/>
    <trip id="175" depart="1205.31" from="-420187959#4" to="420187959#10" type="passenger"/>
    <trip id="176" depart="1212.20" from="420187959#2" to="381458600" type="passenger"/>
    <trip id="177" depart="1219.09" from="420317544#1" to="-239357573#3" type="passenger"/>
    <trip id="178" depart="1225.98" from="-1279010544#0" to="-420317540" type="passenger"/>
    <trip id="179" depart="1232.86" from="-420317540" to="381452123#0" type="passenger"/>
    <trip id="180" depart="1239.75" from="-420317544#0" to="420187959#11" type="passenger"/>
    <trip id="181" depart="1246.64" from="-381458581#1" to="381452167" type="passenger"/>
    <trip id="182" depart="1253.53" from="-381452118#2" to="244215552#1" type="passenger"/>
    <trip id="183" depart="1260.41" from="-381458600" to="-420187959#2" type="passenger"/>
    <trip id="184" depart="1267.30" from="-381452170#0" to="-1279010544#0" type="passenger"/>
    <trip id="185" depart="1274.19" from="381452118#3" to="381452118#3" type="passenger"/>
    <trip id="186" depart="1281.08" from="-420317543#1" to="244215552#1" type="passenger"/>
    <trip id="187" depart="1287.96" from="381458592#0" to="520307305#4" type="passenger"/>
    <trip id="188" depart="1294.85" from="-420187959#7" to="381452165#2" type="passenger"/>
    <trip id="189" depart="1301.74" from="381458592#2" to="420187959#12" type="passenger"/>
    <trip id="190" depart="1308.63" from="381452118#4" to="-381452165#0" type="passenger"/>
    <trip id="191" depart="1315.51" from="381452165#0" to="381452165#2" type="passenger"/>
    <trip id="192" depart="1322.40" from="-381452126#1" to="-239357573#1" type="passenger"/>
    <trip id="193" depart="1329.29" from="381458589#0" to="381452118#4" type="passenger"/>
    <trip id="194" depart="1336.18" from="-117914352#0" to="-218681380#1" type="passenger"/>
    <trip id="195" depart="1343.06" from="-420317540" to="381452118#2" type="passenger"/>
    <trip id="196" depart="1349.95" from="-381452103#1" to="381452126#0" type="passenger"/>
    <trip id="197" depart="1356.84" from="-420187959#12" to="381452118#2" type="passenger"/>
    <trip id="198" depart="1363.73" from="-381452170#1" to="-381452165#1" type="passenger"/>
    <trip id="199" depart="1370.61" from="-381452118#2" to="381452123#1" type="passenger"/>
    <trip id="200" depart="1377.50" from="381452104" to="-239357573#1" type="passenger"/>
    <trip id="201" depart="1384.39" from="-381452098" to="420187959#11" type="passenger"/>
    <trip id="202" depart="1391.28" from="-381452170#0" to="420317543#1" type="passenger"/>
    <trip id="203" depart="1398.16" from="520307305#3" to="381458600" type="passenger"/>
    <trip id="204" depart="1405.05" from="-381452118#1" to="-381452103#0" type="passenger"/>
    <trip id="205" depart="1411.94" from="420187959#1" to="-420317543#1" type="passenger"/>
    <trip id="206" depart="1418.83" from="-117914354" to="-381452103#0" type="passenger"/>
    <trip id="207" depart="1425.71" from="-381452182" to="-381452165#2" type="passenger"/>
    <trip id="208" depart="1432.60" from="-1279010544#0" to="381452143#0" type="passenger"/>
    <trip id="209" depart="1439.49" from="-218681380#2" to="-381458592#1" type="passenger"/>
    <trip id="210" depart="1446.38" from="381452123#1" to="381452165#2" type="passenger"/>
    <trip id="211" depart="1453.26" from="381458592#0" to="-381452165#1" type="passenger"/>
    <trip id="212" depart="1460.15" from="-381452118#4" to="381452103#0" type="passenger"/>
    <trip id="213" depart="1467.04" from="381458592#2" to="381452165#1" type="passenger"/>
    <trip id="214" depart="1473.93" from="381452165#0" to="-420317543#1" type="passenger"/>
    <trip id="215" depart="1480.81" from="381452143#0" to="420187959#9" type="passenger"/>
    <trip id="216" depart="1487.70" from="381452103#0" to="-381452118#3" type="passenger"/>
    <trip id="217" depart="1494.59" from="420187959#1" to="-218681380#0" type="passenger"/>
    <trip id="218" depart="1501.48" from="-117914345#1" to="-381458592#2" type="passenger"/>
    <trip id="219" depart="1508.36" from="381452151" to="-420317544#1" type="passenger"/>
    <trip id="220" depart="1515.25" from="239357573#1" to="-420317543#1" type="passenger"/>
    <trip id="221" depart="1522.14" from="-420187959#3" to="420317544#1" type="passenger"/>
    <trip id="222" depart="1529.03" from="381458600" to="-420317543#0" type="passenger"/>
    <trip id="223" depart="1535.91" from="520307305#1" to="-239357573#0" type="passenger"/>
    <trip id="224" depart="1542.80" from="420187959#5" to="-520307305#1" type="passenger"/>
    <trip id="225" depart="1549.69" from="-520307305#2" to="420187959#6" type="passenger"/>
    <trip id="226" depart="1556.58" from="-420317540" to="-420317544#1" type="passenger"/>
    <trip id="227" depart="1563.46" from="-381452165#1" to="381452123#0" type="passenger"/>
    <trip id="228" depart="1570.35" from="381452143#0" to="381452118#5" type="passenger"/>
    <trip id="229" depart="1577.24" from="-381452118#3" to="420187959#5" type="passenger"/>
    <trip id="230" depart="1584.13" from="-520307305#3" to="-381452108" type="passenger"/>
    <trip id="231" depart="1591.01" from="-381452126#1" to="-381452118#0" type="passenger"/>
    <trip id="232" depart="1597.90" from="-381452118#1" to="117914352#1" type="passenger"/>
    <trip id="233" depart="1604.79" from="381452165#1" to="381452126#0" type="passenger"/>
    <trip id="234" depart="1611.68" from="520307305#2" to="520307305#4" type="passenger"/>
    <trip id="235" depart="1618.56" from="381452104" to="420187959#3" type="passenger"/>
    <trip id="236" depart="1625.45" from="420317540" to="117914352#1" type="passenger"/>
    <trip id="237" depart="1632.34" from="381452165#1" to="381458600" type="passenger"/>
    <trip id="238" depart="1639.23" from="-239357573#1" to="-239357573#0" type="passenger"/>
    <trip id="239" depart="1646.11" from="381452126#0" to="381452098" type="passenger"/>
    <trip id="240" depart="1653.00" from="381458600" to="520307305#5" type="passenger"/>
    <trip id="241" depart="1659.89" from="-520307305#2" to="-37928420" type="passenger"/>
    <trip id="242" depart="1666.78" from="381452123#0" to="-239357573#2" type="passenger"/>
    <trip id="243" depart="1673.66" from="381458592#0" to="381458600" type="passenger"/>
    <trip id="244" depart="1680.55" from="-420187959#5" to="420187959#9" type="passenger"/>
    <trip id="245" depart="1687.44" from="-420187959#5" to="420187959#10" type="passenger"/>
    <trip id="246" depart="1694.33" from="-381458592#1" to="381452143#1" type="passenger"/>
    <trip id="247" depart="1701.21" from="-381452098" to="-420187959#3" type="passenger"/>
    <trip id="248" depart="1708.10" from="-420187959#7" to="420187959#7" type="passenger"/>
    <trip id="249" depart="1714.99" from="420187959#1" to="-381452103#0" type="passenger"/>
    <trip id="250" depart="1721.88" from="-420317544#2" to="420187959#12" type="passenger"/>
    <trip id="251" depart="1728.76" from="520307305#3" to="-520307305#2" type="passenger"/>
    <trip id="252" depart="1735.65" from="-381452118#3" to="381458581#1" type="passenger"/>
    <trip id="253" depart="1742.54" from="-381452123#1" to="244215552#1" type="passenger"/>
    <trip id="254" depart="1749.43" from="-381458600" to="-239357573#1" type="passenger"/>
    <trip id="255" depart="1756.31" from="-117914352#0" to="-420317543#1" type="passenger"/>
    <trip id="256" depart="1763.20" from="-218681380#0" to="381452118#1" type="passenger"/>
    <trip id="257" depart="1770.09" from="381452165#0" to="381452165#0" type="passenger"/>
    <trip id="258" depart="1776.98" from="-520307305#4" to="381452103#1" type="passenger"/>
    <trip id="259" depart="1783.86" from="37928420" to="-381452118#5" type="passenger"/>
    <trip id="260" depart="1790.75" from="381452118#5" to="520307305#5" type="passenger"/>
    <trip id="261" depart="1797.64" from="-420187959#10" to="381452123#1" type="passenger"/>
    <trip id="262" depart="1804.53" from="-381452118#3" to="520307305#5" type="passenger"/>
    <trip id="263" depart="1811.41" from="-218681380#2" to="-381452170#0" type="passenger"/>
    <trip id="264" depart="1818.30" from="-420187959#9" to="381452170#0" type="passenger"/>
    <trip id="265" depart="1825.19" from="1279010544#0" to="-239357573#3" type="passenger"/>
    <trip id="266" depart="1832.08" from="381452118#0" to="-239357573#2" type="passenger"/>
    <trip id="267" depart="1838.96" from="117914352#0" to="-117914345#0" type="passenger"/>
    <trip id="268" depart="1845.85" from="-381452165#1" to="-381458589#0" type="passenger"/>
    <trip id="269" depart="1852.74" from="-381452118#5" to="381452167" type="passenger"/>
    <trip id="270" depart="1859.63" from="-381452170#1" to="381452118#5" type="passenger"/>
    <trip id="271" depart="1866.51" from="218681380#1" to="420187959#5" type="passenger"/>
    <trip id="272" depart="1873.40" from="-420187959#11" to="-117914345#0" type="passenger"/>
    <trip id="273" depart="1880.29" from="-1279010544#0" to="-520307305#4" type="passenger"/>
    <trip id="274" depart="1887.18" from="-381452118#2" to="520307305#5" type="passenger"/>
    <trip id="275" depart="1894.06" from="218681380#2" to="381458600" type="passenger"/>
    <trip id="276" depart="1900.95" from="381452108" to="381452098" type="passenger"/>
    <trip id="277" depart="1907.84" from="420187959#3" to="-1279010544#0" type="passenger"/>
    <trip id="278" depart="1914.73" from="-420187959#12" to="381452118#3" type="passenger"/>
    <trip id="279" depart="1921.61" from="-420187959#10" to="420187959#8" type="passenger"/>
    <trip id="280" depart="1928.50" from="-381458592#1" to="381452143#1" type="passenger"/>
    <trip id="281" depart="1935.39" from="117914354" to="117914354" type="passenger"/>
    <trip id="282" depart="1942.28" from="520307305#3" to="-420187959#2" type="passenger"/>
    <trip id="283" depart="1949.16" from="117914354" to="-381452118#2" type="passenger"/>
    <trip id="284" depart="1956.05" from="381458589#0" to="381452103#0" type="passenger"/>
    <trip id="285" depart="1962.94" from="-520307305#2" to="117914354" type="passenger"/>
    <trip id="286" depart="1969.83" from="-420187959#4" to="-381452126#1" type="passenger"/>
    <trip id="287" depart="1976.71" from="-420317544#2" to="381452123#1" type="passenger"/>
    <trip id="288" depart="1983.60" from="-381458581#1" to="381452170#1" type="passenger"/>
    <trip id="289" depart="1990.49" from="-520307305#3" to="420187959#6" type="passenger"/>
    <trip id="290" depart="1997.38" from="-420187959#7" to="-381452123#0" type="passenger"/>
    <trip id="291" depart="2004.26" from="-381452182" to="-1279010544#0" type="passenger"/>
    <trip id="292" depart="2011.15" from="-520307305#3" to="-520307305#1" type="passenger"/>
    <trip id="293" depart="2018.04" from="-420187959#8" to="381452118#2" type="passenger"/>
    <trip id="294" depart="2024.93" from="381452123#0" to="-381452118#4" type="passenger"/>
    <trip id="295" depart="2031.81" from="381452118#3" to="-420317540" type="passenger"/>
    <trip id="296" depart="2038.70" from="381452170#0" to="420187959#12" type="passenger"/>
    <trip id="297" depart="2045.59" from="-520307305#2" to="-381452103#0" type="passenger"/>
    <trip id="298" depart="2052.48" from="381452118#1" to="-117914345#0" type="passenger"/>
    <trip id="299" depart="2059.36" from="-218681380#3" to="-381452143#0" type="passenger"/>
    <trip id="300" depart="2066.25" from="381452126#1" to="117914352#0" type="passenger"/>
    <trip id="301" depart="2073.14" from="244215552#0" to="-117914352#0" type="passenger"/>
    <trip id="302" depart="2080.03" from="420317544#1" to="-420317544#2" type="passenger"/>
    <trip id="303" depart="2086.91" from="420187959#5" to="-520307305#3" type="passenger"/>
    <trip id="304" depart="2093.80" from="381452118#1" to="-37928420" type="passenger"/>
    <trip id="305" depart="2100.69" from="-1279010544#0" to="381452103#0" type="passenger"/>
    <trip id="306" depart="2107.58" from="-117914345#0" to="-520307305#2" type="passenger"/>
    <trip id="307" depart="2114.46" from="381452118#5" to="-381452118#3" type="passenger"/>
    <trip id="308" depart="2121.35" from="520307305#5" to="244215552#1" type="passenger"/>
    <trip id="309" depart="2128.24" from="381452165#1" to="381452143#1" type="passenger"/>
    <trip id="310" depart="2135.13" from="37928420" to="381452126#1" type="passenger"/>
    <trip id="311" depart="2142.01" from="-420187959#3" to="-117914352#0" type="passenger"/>
    <trip id="312" depart="2148.90" from="-218681380#1" to="420187959#9" type="passenger"/>
    <trip id="313" depart="2155.79" from="-420187959#12" to="420187959#4" type="passenger"/>
    <trip id="314" depart="2162.68" from="381452170#1" to="-381458589#0" type="passenger"/>
    <trip id="315" depart="2169.56" from="381458592#0" to="-381452103#0" type="passenger"/>
    <trip id="316" depart="2176.45" from="520307305#3" to="-520307305#2" type="passenger"/>
    <trip id="317" depart="2183.34" from="381452126#0" to="-381458592#2" type="passenger"/>
    <trip id="318" depart="2190.23" from="-381452170#1" to="-218681380#0" type="passenger"/>
    <trip id="319" depart="2197.11" from="-420317540" to="-239357573#0" type="passenger"/>