<?xml version="1.0" encoding="UTF-8"?>

<!-- generated on 2026-04-15T02:59:58.673788+09:00 by Eclipse SUMO netconvert 1.26.0
<netconvertConfiguration xmlns:xsi="http://www.w3.org/2001/XMLSchema-instance" xsi:noNamespaceSchemaLocation="http://sumo.dlr.de/xsd/netconvertConfiguration.xsd">

    <input>
        <osm-files value="/Users/junlee/Desktop/2026-1/js/result/report_top12_seed4_2h/sumo_nets/cw_6122/map.osm"/>
    </input>

    <output>
        <output-file value="/Users/junlee/Desktop/2026-1/js/result/report_top12_seed4_2h/sumo_nets/cw_6122/network.net.xml"/>
    </output>

    <projection>
        <proj.utm value="true"/>
    </projection>

    <processing>
        <geometry.remove value="true"/>
        <roundabouts.guess value="true"/>
    </processing>

    <tls_building>
        <tls.guess value="true"/>
        <tls.guess-signals value="true"/>
    </tls_building>

    <ramp_guessing>
        <ramps.guess value="true"/>
    </ramp_guessing>

    <edge_removal>
        <keep-edges.by-vclass value="passenger,pedestrian"/>
    </edge_removal>

    <junctions>
        <no-turnarounds value="true"/>
        <junctions.join value="true"/>
    </junctions>

    <pedestrian>
        <sidewalks.guess value="true"/>
        <sidewalks.guess.max-speed value="13.89"/>
        <crossings.guess value="true"/>
    </pedestrian>

    <report>
        <verbose value="true"/>
    </report>

</netconvertConfiguration>
-->

<net version="1.20" junctionCornerDetail="5" walkingareas="true" limitTurnSpeed="5.50" xmlns:xsi="http://www.w3.org/2001/XMLSchema-instance" xsi:noNamespaceSchemaLocation="http://sumo.dlr.de/xsd/net_file.xsd">

    <location netOffset="-321071.01,-4158382.89" convBoundary="0.00,0.00,697.03,740.28" origBoundary="126.972449,37.552576,126.992391,37.561808" projParameter="+proj=utm +zone=52 +ellps=WGS84 +datum=WGS84 +units=m +no_defs"/>

    <type id="highway.footway" priority="1" numLanes="1" speed="2.78" allow="pedestrian" oneway="1" width="2.00"/>
    <type id="highway.path" priority="1" numLanes="1" speed="5.56" allow="pedestrian bicycle" oneway="0" width="2.00"/>
    <type id="highway.pedestrian" priority="1" numLanes="1" speed="2.78" allow="pedestrian" oneway="1" width="2.00"/>
    <type id="highway.primary" priority="12" numLanes="2" speed="27.78" disallow="tram rail_urban rail rail_electric rail_fast ship container cable_car subway aircraft wheelchair scooter drone" oneway="0"/>
    <type id="highway.residential" priority="3" numLanes="1" speed="13.89" disallow="tram rail_urban rail rail_electric rail_fast ship container cable_car subway aircraft wheelchair scooter drone" oneway="0"/>
    <type id="highway.secondary" priority="11" numLanes="1" speed="27.78" disallow="tram rail_urban rail rail_electric rail_fast ship container cable_car subway aircraft wheelchair scooter drone" oneway="0"/>
    <type id="highway.service" priority="1" numLanes="1" speed="5.56" allow="pedestrian delivery bicycle" oneway="0"/>

    <edge id=":10316011955_0" function="internal">
        <lane id=":10316011955_0_0" index="0" allow="pedestrian delivery bicycle" speed="5.56" length="7.08" shape="202.37,659.02 200.53,658.48 199.24,657.49 198.49,656.04 198.28,654.14"/>
    </edge>
    <edge id=":10316011955_1" function="internal">
        <lane id=":10316011955_1_0" index="0" allow="pedestrian delivery bicycle" speed="3.91" length="2.36" shape="201.48,654.23 201.55,654.86 201.80,655.35 202.23,655.68 202.84,655.86"/>
    </edge>
    <edge id=":10316011955_w0" function="walkingarea">
        <lane id=":10316011955_w0_0" index="0" allow="pedestrian" speed="2.78" length="4.11" width="6.40" shape="202.13,660.61 203.08,654.28 196.68,654.09 197.22,657.34 197.96,658.56 199.03,659.51 200.42,660.19"/>
    </edge>
    <edge id=":10316011957_0" function="internal">
        <lane id=":10316011957_0_0" index="0" allow="pedestrian delivery bicycle" speed="5.56" length="9.43" shape="227.70,640.97 223.68,649.50"/>
    </edge>
    <edge id=":10316011957_1" function="internal">
        <lane id=":10316011957_1_0" index="0" allow="pedestrian delivery bicycle" speed="5.56" length="10.20" shape="227.70,640.97 226.22,643.17 224.30,644.42 221.93,644.73 219.13,644.08"/>
    </edge>
    <edge id=":10316011957_2" function="internal">
        <lane id=":10316011957_2_0" index="0" allow="pedestrian delivery bicycle" speed="5.34" length="5.36" shape="220.24,641.08 221.76,641.44 223.03,641.32 224.04,640.71 224.80,639.61"/>
    </edge>
    <edge id=":10316011957_3" function="internal">
        <lane id=":10316011957_3_0" index="0" allow="pedestrian delivery bicycle" speed="5.56" length="10.59" shape="220.24,641.08 222.82,642.48 224.26,644.35 224.54,646.69 223.68,649.50"/>
    </edge>
    <edge id=":10316011957_4" function="internal">
        <lane id=":10316011957_4_0" index="0" allow="pedestrian delivery bicycle" speed="4.95" length="5.10" shape="220.79,648.14 221.20,646.78 221.06,645.66 220.37,644.75 219.13,644.08"/>
    </edge>
    <edge id=":10316011957_5" function="internal">
        <lane id=":10316011957_5_0" index="0" allow="pedestrian delivery bicycle" speed="5.56" length="9.42" shape="220.79,648.14 224.80,639.61"/>
    </edge>
    <edge id=":10316011957_w0" function="walkingarea">
        <lane id=":10316011957_w0_0" index="0" allow="pedestrian" speed="2.78" length="6.97" width="6.40" shape="229.15,641.66 223.35,638.93 222.79,639.61 222.40,639.77 221.93,639.82 221.40,639.76 220.80,639.58 218.57,645.58 219.28,646.02 219.47,646.31 219.54,646.64 219.50,647.03 219.34,647.46 225.13,650.18"/>
    </edge>
    <edge id=":10316011958_w0" function="walkingarea">
        <lane id=":10316011958_w0_0" index="0" allow="pedestrian" speed="2.78" length="1.21" width="2.00" shape="229.89,628.26 228.04,627.50 227.29,629.36 228.40,629.56 228.87,629.45 229.27,629.20 229.61,628.80"/>
    </edge>
    <edge id=":10316011996_w0" function="walkingarea">
        <lane id=":10316011996_w0_0" index="0" allow="pedestrian" speed="2.78" length="3.24" width="2.00" shape="232.15,627.45 232.61,625.51 231.86,625.16 231.66,624.90 231.57,624.58 231.59,624.20 231.72,623.77 229.85,623.02 229.65,623.93 229.38,624.16 228.99,624.24 228.48,624.17 227.86,623.96 227.08,625.80 227.80,626.29 228.00,626.60 228.08,626.95 228.06,627.35 227.92,627.79 229.78,628.54 230.31,627.75 230.68,627.51 231.10,627.39 231.59,627.37"/>
    </edge>
    <edge id=":10316028040_w0" function="walkingarea">
        <lane id=":10316028040_w0_0" index="0" allow="pedestrian" speed="2.78" length="9.60" width="12.80" shape="458.19,674.93 457.13,681.24 459.25,668.62 458.19,674.93"/>
    </edge>
    <edge id=":10316028054_0" function="internal">
        <lane id=":10316028054_0_0" index="0" disallow="pedestrian tram rail_urban rail rail_electric rail_fast ship container cable_car subway aircraft wheelchair scooter drone" speed="13.89" length="5.24" shape="486.86,604.95 481.73,603.89"/>
    </edge>
    <edge id=":10316028054_1" function="internal">
        <lane id=":10316028054_1_0" index="0" disallow="pedestrian tram rail_urban rail rail_electric rail_fast ship container cable_car subway aircraft wheelchair scooter drone" speed="13.89" length="5.18" shape="482.42,600.76 487.49,601.82"/>
    </edge>
    <edge id=":10316028054_c0" function="crossing" crossingEdges="301285279#2 -301285279#2">
        <lane id=":10316028054_c0_0" index="0" allow="pedestrian" speed="2.78" length="6.40" width="4.00" shape="485.27,599.74 484.00,606.01" outlineShape="487.25,600.03 485.94,606.50 482.04,605.61 483.31,599.34"/>
    </edge>
    <edge id=":10316028054_w0" function="walkingarea">
        <lane id=":10316028054_w0_0" index="0" allow="pedestrian" speed="2.78" length="3.70" width="4.00" shape="481.38,605.45 480.95,607.40 482.70,609.72 484.70,609.68 486.14,608.48 486.54,606.52 485.96,606.41 482.04,605.61"/>
    </edge>
    <edge id=":10316028054_w1" function="walkingarea">
        <lane id=":10316028054_w1_0" index="0" allow="pedestrian" speed="2.78" length="3.55" width="4.00" shape="483.31,599.34 487.23,600.13 487.81,600.25 488.21,598.29 483.21,597.25 482.77,599.20"/>
    </edge>
    <edge id=":10316028078_w0" function="walkingarea">
        <lane id=":10316028078_w0_0" index="0" allow="pedestrian" speed="2.78" length="4.41" width="2.00" shape="481.11,667.71 483.04,667.17 482.98,666.39 483.11,666.13 483.35,665.95 483.69,665.87 484.13,665.87 484.33,663.88 483.28,663.60 482.93,663.35 482.69,663.02 482.58,662.61 482.58,662.13 480.59,661.90 480.33,662.69 480.10,662.94 479.79,663.09 479.40,663.14 478.95,663.09 478.55,665.05 479.70,665.52 480.16,665.91 480.55,666.41 480.87,667.00"/>
    </edge>
    <edge id=":10712099890_w0" function="walkingarea">
        <lane id=":10712099890_w0_0" index="0" allow="pedestrian" speed="2.78" length="4.03" width="2.00" shape="235.08,379.53 235.39,377.55 234.58,377.25 234.31,376.98 234.13,376.64 234.03,376.22 234.03,375.72 232.03,375.58 231.81,376.40 231.58,376.67 231.27,376.86 230.89,376.95 230.43,376.95 230.26,378.94"/>
    </edge>
    <edge id=":10712099893_w0" function="walkingarea">
        <lane id=":10712099893_w0_0" index="0" allow="pedestrian" speed="2.78" length="4.06" width="2.00" shape="260.80,339.99 262.79,339.76 262.21,334.78 260.22,335.02 260.15,335.85 259.98,336.15 259.71,336.37 259.35,336.52 258.90,336.58 259.00,338.58 259.93,338.70 260.27,338.89 260.53,339.17 260.71,339.53"/>
    </edge>
    <edge id=":10727322977_w0" function="walkingarea">
        <lane id=":10727322977_w0_0" index="0" allow="pedestrian" speed="2.78" length="4.03" width="2.00" shape="231.32,341.41 233.32,341.39 233.48,340.55 233.69,340.24 234.00,340.02 234.38,339.88 234.86,339.81 234.76,337.81 233.92,337.69 233.62,337.50 233.41,337.21 233.27,336.85 233.22,336.39 231.22,336.45"/>
    </edge>
    <edge id=":10727322978_0" function="internal">
        <lane id=":10727322978_0_0" index="0" disallow="tram rail_urban rail rail_electric rail_fast ship container cable_car subway aircraft wheelchair scooter drone" speed="27.78" length="5.94" shape="233.92,287.76 228.62,285.00"/>
        <lane id=":10727322978_0_1" index="1" disallow="tram rail_urban rail rail_electric rail_fast ship container cable_car subway aircraft wheelchair scooter drone" speed="27.78" length="5.94" shape="235.38,284.91 230.14,282.18"/>
    </edge>
    <edge id=":10727322978_w0" function="walkingarea">
        <lane id=":10727322978_w0_0" index="0" allow="pedestrian" speed="2.78" length="5.09" width="3.20" shape="229.89,290.05 231.89,289.99 232.02,289.24 232.19,289.04 232.45,288.96 232.78,289.01 233.18,289.18 236.11,283.49 230.90,280.78 227.86,286.41 228.97,287.27 229.35,287.83 229.64,288.48 229.82,289.22"/>
    </edge>
    <edge id=":11203052961_0" function="internal">
        <lane id=":11203052961_0_0" index="0" disallow="tram rail_urban rail rail_electric rail_fast ship container cable_car subway aircraft wheelchair scooter drone" speed="27.78" length="0.62" shape="680.94,573.03 680.69,572.91 680.52,572.81 680.36,572.71 680.14,572.54"/>
        <lane id=":11203052961_0_1" index="1" disallow="tram rail_urban rail rail_electric rail_fast ship container cable_car subway aircraft wheelchair scooter drone" speed="27.78" length="0.62" shape="682.33,570.14 682.24,570.10 682.19,570.07 682.13,570.04 682.06,569.98"/>
    </edge>
    <edge id=":11203052961_w0" function="walkingarea">
        <lane id=":11203052961_w0_0" index="0" allow="pedestrian" speed="2.78" length="0.93" width="3.20" shape="680.24,574.47 683.02,568.70 679.18,573.82 679.55,574.10 679.69,574.18 679.83,574.26 680.00,574.35"/>
    </edge>
    <edge id=":11268210383_w0" function="walkingarea">
        <lane id=":11268210383_w0_0" index="0" allow="pedestrian" speed="2.78" length="4.02" width="2.00" shape="310.60,631.59 311.15,629.67 310.40,629.28 310.18,629.00 310.06,628.66 310.04,628.27 310.13,627.82 308.21,627.26 307.82,628.01 307.53,628.23 307.20,628.35 306.80,628.37 306.35,628.28 305.79,630.20"/>
    </edge>
    <edge id=":11268210408_0" function="internal">
        <lane id=":11268210408_0_0" index="0" disallow="pedestrian tram rail_urban rail rail_electric rail_fast ship container cable_car subway aircraft wheelchair scooter drone" speed="6.48" length="4.96" shape="424.02,591.06 421.51,590.88 419.57,591.57 419.31,591.85"/>
    </edge>
    <edge id=":11268210408_1" function="internal">
        <lane id=":11268210408_1_0" index="0" disallow="pedestrian tram rail_urban rail rail_electric rail_fast ship container cable_car subway aircraft wheelchair scooter drone" speed="13.89" length="14.42" shape="424.02,591.06 409.93,587.94"/>
    </edge>
    <edge id=":11268210408_6" function="internal">
        <lane id=":11268210408_6_0" index="0" disallow="pedestrian tram rail_urban rail rail_electric rail_fast ship container cable_car subway aircraft wheelchair scooter drone" speed="6.48" length="4.26" shape="419.31,591.85 418.19,593.13 417.38,595.56"/>
    </edge>
    <edge id=":11268210408_2" function="internal">
        <lane id=":11268210408_2_0" index="0" disallow="pedestrian tram rail_urban rail rail_electric rail_fast ship container cable_car subway aircraft wheelchair scooter drone" speed="13.89" length="14.43" shape="410.63,584.81 424.71,587.94"/>
    </edge>
    <edge id=":11268210408_3" function="internal">
        <lane id=":11268210408_3_0" index="0" disallow="pedestrian tram rail_urban rail rail_electric rail_fast ship container cable_car subway aircraft wheelchair scooter drone" speed="8.16" length="3.97" shape="410.63,584.81 414.19,586.18 414.30,586.28"/>
    </edge>
    <edge id=":11268210408_7" function="internal">
        <lane id=":11268210408_7_0" index="0" disallow="pedestrian tram rail_urban rail rail_electric rail_fast ship container cable_car subway aircraft wheelchair scooter drone" speed="8.16" length="10.40" shape="414.30,586.28 416.51,588.43 417.57,591.56 417.38,595.56"/>
    </edge>
    <edge id=":11268210408_4" function="internal">
        <lane id=":11268210408_4_0" index="0" disallow="pedestrian tram rail_urban rail rail_electric rail_fast ship container cable_car subway aircraft wheelchair scooter drone" speed="6.72" length="9.41" shape="414.22,595.07 414.36,592.40 413.69,590.32 412.22,588.83 409.93,587.94"/>
    </edge>
    <edge id=":11268210408_5" function="internal">
        <lane id=":11268210408_5_0" index="0" disallow="pedestrian tram rail_urban rail rail_electric rail_fast ship container cable_car subway aircraft wheelchair scooter drone" speed="8.00" length="14.60" shape="414.22,595.07 415.50,591.22 417.67,588.74 420.74,587.65 424.71,587.94"/>
    </edge>
    <edge id=":11268210408_c0" function="crossing" crossingEdges="301285279#1 -301285279#1">
        <lane id=":11268210408_c0_0" index="0" allow="pedestrian" speed="2.78" length="6.40" width="4.00" shape="423.11,585.94 421.72,592.19" outlineShape="425.06,586.37 423.67,592.62 422.44,592.47 421.39,592.59 420.51,592.99 419.82,593.67 419.69,593.90 419.76,591.75 421.15,585.51"/>
    </edge>
    <edge id=":11268210408_c1" function="crossing" crossingEdges="-301285279#0 301285279#0">
        <lane id=":11268210408_c1_0" index="0" allow="pedestrian" speed="2.78" length="6.40" width="4.00" shape="411.54,589.93 412.92,583.68" outlineShape="409.59,589.50 410.97,583.25 414.88,584.11 412.76,593.68 412.79,593.41 412.67,592.23 412.29,591.25 411.65,590.47 410.75,589.88"/>
    </edge>
    <edge id=":11268210408_c2" function="crossing" crossingEdges="788296724#0 -788296724#0">
        <lane id=":11268210408_c2_0" index="0" allow="pedestrian" speed="2.78" length="6.40" width="4.00" shape="419.32,593.88 413.01,592.82" outlineShape="418.99,595.86 412.67,594.79 412.79,593.41 412.67,592.23 412.29,591.25 411.74,590.58 413.34,590.85 419.65,591.91 421.66,592.56 421.39,592.59 420.51,592.99 419.82,593.67 419.30,594.62"/>
    </edge>
    <edge id=":11268210408_w0" function="walkingarea">
        <lane id=":11268210408_w0_0" index="0" allow="pedestrian" speed="2.78" length="3.31" width="4.00" shape="418.97,595.78 420.94,596.14 423.24,594.57 423.67,592.62 422.44,592.47 421.39,592.59 420.51,592.99 419.82,593.67 419.30,594.62"/>
    </edge>
    <edge id=":11268210408_w1" function="walkingarea">
        <lane id=":11268210408_w1_0" index="0" allow="pedestrian" speed="2.78" length="9.04" width="4.00" shape="421.15,585.51 425.06,586.37 425.49,584.42 411.40,581.30 410.97,583.25 414.88,584.11"/>
    </edge>
    <edge id=":11268210408_w2" function="walkingarea">
        <lane id=":11268210408_w2_0" index="0" allow="pedestrian" speed="2.78" length="3.61" width="4.00" shape="409.59,589.50 409.16,591.45 410.67,594.50 412.63,594.86 412.79,593.41 412.67,592.23 412.29,591.25 411.65,590.47 410.75,589.88"/>
    </edge>
    <edge id=":11405756864_0" function="internal">
        <lane id=":11405756864_0_0" index="0" disallow="pedestrian tram rail_urban rail rail_electric rail_fast ship container cable_car subway aircraft wheelchair scooter drone" speed="13.89" length="5.38" shape="525.67,283.61 520.93,281.06"/>
    </edge>
    <edge id=":11405756864_1" function="internal">
        <lane id=":11405756864_1_0" index="0" disallow="pedestrian tram rail_urban rail rail_electric rail_fast ship container cable_car subway aircraft wheelchair scooter drone" speed="13.89" length="5.38" shape="522.45,278.24 527.19,280.79"/>
    </edge>
    <edge id=":11405756864_c0" function="crossing" crossingEdges="315658897#5 -315658897#5">
        <lane id=":11405756864_c0_0" index="0" allow="pedestrian" speed="2.78" length="6.40" width="4.00" shape="525.57,278.11 522.55,283.74" outlineShape="527.34,279.05 524.31,284.69 520.78,282.80 523.81,277.16 527.34,279.05 527.94,279.38 528.89,277.62 524.76,275.40"/>
    </edge>
    <edge id=":11405756864_w0" function="walkingarea">
        <lane id=":11405756864_w0_0" index="0" allow="pedestrian" speed="2.78" length="3.85" width="4.00" shape="520.18,282.47 519.23,284.23 520.72,287.67 522.72,287.62 523.97,286.78 524.92,285.02 524.31,284.69 520.78,282.80"/>
    </edge>
    <edge id=":11405756864_w1" function="walkingarea">
        <lane id=":11405756864_w1_0" index="0" allow="pedestrian" speed="2.78" length="3.71" width="4.00" shape="523.81,277.16 527.34,279.05 527.94,279.38 528.89,277.62 524.15,275.07 523.21,276.83"/>
    </edge>
    <edge id=":11405756867_w0" function="walkingarea">
        <lane id=":11405756867_w0_0" index="0" allow="pedestrian" speed="2.78" length="4.03" width="2.00" shape="526.63,308.11 527.11,306.16 526.24,305.75 525.88,305.42 525.58,304.99 525.32,304.48 525.12,303.89 523.19,304.41 523.25,305.25 523.12,305.57 522.89,305.83 522.56,306.02 522.12,306.14 522.49,308.11 524.02,307.83 524.57,307.78 525.12,307.80 525.77,307.91"/>
    </edge>
    <edge id=":11405764669_w0" function="walkingarea">
        <lane id=":11405764669_w0_0" index="0" allow="pedestrian" speed="2.78" length="4.08" width="2.00" shape="531.41,321.47 533.37,321.11 532.33,316.11 530.38,316.57 530.40,317.43 530.24,317.79 529.98,318.09 529.60,318.33 529.12,318.52 529.70,320.43 530.53,320.35 530.85,320.47 531.10,320.70 531.28,321.03"/>
    </edge>
    <edge id=":11405764673_0" function="internal">
        <lane id=":11405764673_0_0" index="0" disallow="pedestrian tram rail_urban rail rail_electric rail_fast ship container cable_car subway aircraft wheelchair scooter drone" speed="13.89" length="5.00" shape="567.59,382.52 563.35,385.15"/>
    </edge>
    <edge id=":11405764673_1" function="internal">
        <lane id=":11405764673_1_0" index="0" disallow="pedestrian tram rail_urban rail rail_electric rail_fast ship container cable_car subway aircraft wheelchair scooter drone" speed="13.89" length="5.00" shape="561.70,382.41 565.94,379.77"/>
    </edge>
    <edge id=":11405764673_c0" function="crossing" crossingEdges="243542153#2 -243542153#2">
        <lane id=":11405764673_c0_0" index="0" allow="pedestrian" speed="2.78" length="6.41" width="4.00" shape="562.98,379.94 566.51,385.28" outlineShape="564.59,378.75 568.23,384.26 565.81,387.86 569.52,385.57 568.35,383.95 568.18,384.18 564.84,386.38 561.31,381.04"/>
    </edge>
    <edge id=":11405764673_w0" function="walkingarea">
        <lane id=":11405764673_w0_0" index="0" allow="pedestrian" speed="2.78" length="3.42" width="4.00" shape="564.17,386.53 565.20,388.24 569.52,385.57 568.35,383.95 568.18,384.18 564.84,386.38"/>
    </edge>
    <edge id=":11405764673_w1" function="walkingarea">
        <lane id=":11405764673_w1_0" index="0" allow="pedestrian" speed="2.78" length="3.54" width="4.00" shape="561.31,381.04 564.65,378.83 565.18,378.34 564.01,376.72 562.11,376.22 560.37,377.21 559.85,379.32 560.88,381.04"/>
    </edge>
    <edge id=":11405764674_w0" function="walkingarea">
        <lane id=":11405764674_w0_0" index="0" allow="pedestrian" speed="2.78" length="3.20" width="6.40" shape="485.19,300.53 482.00,300.79 488.38,300.27 485.19,300.53"/>
    </edge>
    <edge id=":11405764676_0" function="internal">
        <lane id=":11405764676_0_0" index="0" allow="delivery bicycle" speed="5.72" length="6.71" shape="465.84,297.52 463.59,297.66 461.97,298.19 460.97,299.13 460.61,300.47"/>
    </edge>
    <edge id=":11405764676_1" function="internal">
        <lane id=":11405764676_1_0" index="0" allow="delivery bicycle" speed="7.35" length="11.85" shape="465.84,297.52 462.21,297.03 459.64,295.78 458.14,293.76 457.71,290.97"/>
    </edge>
    <edge id=":11405764676_2" function="internal">
        <lane id=":11405764676_2_0" index="0" allow="delivery bicycle" speed="5.70" length="6.70" shape="460.91,291.07 461.18,292.45 462.11,293.44 463.69,294.07 465.92,294.32"/>
    </edge>
    <edge id=":11405764676_3" function="internal">
        <lane id=":11405764676_3_0" index="0" disallow="pedestrian tram rail_urban rail rail_electric rail_fast ship container cable_car subway aircraft wheelchair scooter drone" speed="13.89" length="9.40" shape="460.91,291.07 460.61,300.47"/>
    </edge>
    <edge id=":11405764676_4" function="internal">
        <lane id=":11405764676_4_0" index="0" disallow="pedestrian tram rail_urban rail rail_electric rail_fast ship container cable_car subway aircraft wheelchair scooter drone" speed="13.89" length="9.40" shape="457.41,300.36 457.71,290.97"/>
    </edge>
    <edge id=":11405764676_5" function="internal">
        <lane id=":11405764676_5_0" index="0" allow="delivery bicycle" speed="7.37" length="2.95" shape="457.41,300.36 458.02,297.64 458.12,297.52"/>
    </edge>
    <edge id=":11405764676_6" function="internal">
        <lane id=":11405764676_6_0" index="0" allow="delivery bicycle" speed="7.37" length="8.86" shape="458.12,297.52 459.64,295.73 462.27,294.62 465.92,294.32"/>
    </edge>
    <edge id=":11405764676_c0" function="crossing" crossingEdges="315658899#1 -315658899#1">
        <lane id=":11405764676_c0_0" index="0" allow="pedestrian" speed="2.78" length="6.40" width="4.00" shape="456.05,292.92 462.44,293.12" outlineShape="456.11,290.92 462.51,291.12 462.61,291.13 462.51,291.12 462.38,295.12 455.98,294.92 456.11,290.92 454.11,290.86 453.81,300.25 455.81,300.31 455.98,294.92"/>
    </edge>
    <edge id=":11405764676_w0" function="walkingarea">
        <lane id=":11405764676_w0_0" index="0" allow="pedestrian" speed="2.78" length="5.31" width="4.00" shape="462.21,300.52 464.21,300.58 465.79,299.12 465.88,295.92 465.96,292.72 464.51,291.19 462.51,291.12 462.38,295.12"/>
    </edge>
    <edge id=":11405764676_w1" function="walkingarea">
        <lane id=":11405764676_w1_0" index="0" allow="pedestrian" speed="2.78" length="6.36" width="4.00" shape="455.98,294.92 456.11,290.92 454.11,290.86 453.81,300.25 455.81,300.31"/>
    </edge>
    <edge id=":11405764681_0" function="internal">
        <lane id=":11405764681_0_0" index="0" disallow="pedestrian tram rail_urban rail rail_electric rail_fast ship container cable_car subway aircraft wheelchair scooter drone" speed="13.89" length="6.19" shape="520.15,280.64 514.70,277.71"/>
    </edge>
    <edge id=":11405764681_1" function="internal">
        <lane id=":11405764681_1_0" index="0" disallow="pedestrian tram rail_urban rail rail_electric rail_fast ship container cable_car subway aircraft wheelchair scooter drone" speed="13.89" length="6.19" shape="516.21,274.89 521.66,277.82"/>
    </edge>
    <edge id=":11405764681_c0" function="crossing" crossingEdges="315658897#4 -315658897#4">
        <lane id=":11405764681_c0_0" index="0" allow="pedestrian" speed="2.78" length="6.40" width="4.00" shape="519.70,274.95 516.67,280.59" outlineShape="521.50,275.81 518.38,281.62 513.96,281.40 518.45,283.81 519.39,282.05 518.43,281.53 514.90,279.64 517.93,274.00 521.46,275.89 522.42,276.41 523.37,274.65 523.52,273.66 523.15,271.70 517.92,271.72 516.97,273.48 517.93,274.00"/>
    </edge>
    <edge id=":11405764681_w0" function="walkingarea">
        <lane id=":11405764681_w0_0" index="0" allow="pedestrian" speed="2.78" length="4.23" width="4.00" shape="513.94,279.12 512.99,280.88 518.45,283.81 519.39,282.05 518.43,281.53 514.90,279.64"/>
    </edge>
    <edge id=":11405764681_w1" function="walkingarea">
        <lane id=":11405764681_w1_0" index="0" allow="pedestrian" speed="2.78" length="4.29" width="4.00" shape="517.93,274.00 521.46,275.89 522.42,276.41 523.37,274.65 523.52,273.66 523.15,271.70 517.92,271.72 516.97,273.48"/>
    </edge>
    <edge id=":11418728515_w0" function="walkingarea">
        <lane id=":11418728515_w0_0" index="0" allow="pedestrian" speed="2.78" length="4.11" width="2.00" shape="360.83,643.63 361.24,641.67 360.49,641.34 360.28,641.09 360.18,640.77 360.20,640.40 360.33,639.96 358.47,639.23 357.93,640.14 357.59,640.43 357.21,640.61 356.79,640.68 356.32,640.63 355.91,642.59"/>
    </edge>
    <edge id=":11418728529_0" function="internal">
        <lane id=":11418728529_0_0" index="0" allow="pedestrian delivery bicycle" speed="5.56" length="6.63" shape="164.87,423.21 158.25,423.45"/>
    </edge>
    <edge id=":11418728529_1" function="internal">
        <lane id=":11418728529_1_0" index="0" allow="pedestrian delivery bicycle" speed="5.56" length="6.69" shape="158.10,420.26 164.79,420.02"/>
    </edge>
    <edge id=":11418728529_w0" function="walkingarea">
        <lane id=":11418728529_w0_0" index="0" allow="pedestrian" speed="2.78" length="6.21" width="6.40" shape="164.92,424.81 164.74,418.42 163.96,418.28 163.72,418.09 163.59,417.81 163.57,417.45 163.65,417.01 161.73,416.47 161.06,417.62 160.51,418.04 159.83,418.35 159.00,418.56 158.03,418.66 158.33,425.05 159.14,425.18 159.40,425.37 159.57,425.65 159.64,426.01 159.62,426.47 161.60,426.74 162.08,425.71 162.56,425.34 163.19,425.06 163.97,424.89"/>
    </edge>
    <edge id=":11418728533_w0" function="walkingarea">
        <lane id=":11418728533_w0_0" index="0" allow="pedestrian" speed="2.78" length="4.42" width="2.00" shape="158.55,536.51 160.36,535.66 160.17,534.94 160.25,534.71 160.45,534.57 160.77,534.52 161.20,534.56 161.55,532.59 160.13,532.18 159.63,531.88 159.27,531.53 159.05,531.12 158.97,530.65 156.97,530.68 157.12,532.92 157.30,533.70 157.58,534.45 157.99,535.34"/>
    </edge>
    <edge id=":11418728553_w0" function="walkingarea">
        <lane id=":11418728553_w0_0" index="0" allow="pedestrian" speed="2.78" length="4.88" width="2.00" shape="283.82,626.01 285.81,625.83 285.90,625.05 286.08,624.82 286.34,624.69 286.69,624.67 287.12,624.76 287.68,622.84 286.44,622.21 285.99,621.73 285.64,621.16 285.41,620.48 285.28,619.70 283.29,619.87 283.21,620.63 283.04,620.84 282.79,620.93 282.46,620.90 282.05,620.75 281.23,622.58 282.58,623.43 283.07,623.97 283.44,624.58 283.69,625.26"/>
    </edge>
    <edge id=":11449715050_0" function="internal">
        <lane id=":11449715050_0_0" index="0" allow="delivery bicycle" speed="9.72" length="9.97" shape="493.29,228.34 490.29,228.11 488.06,227.49 486.07,227.41 483.81,228.82"/>
    </edge>
    <edge id=":11449715050_1" function="internal">
        <lane id=":11449715050_1_0" index="0" allow="delivery bicycle" speed="7.85" length="16.89" shape="493.29,228.34 489.03,227.90 486.41,225.82 485.44,222.09 486.12,216.73"/>
    </edge>
    <edge id=":11449715050_2" function="internal">
        <lane id=":11449715050_2_0" index="0" allow="delivery bicycle" speed="5.91" length="9.00" shape="488.78,219.31 488.48,222.03 489.09,223.91 490.61,224.95 493.05,225.15"/>
    </edge>
    <edge id=":11449715050_3" function="internal">
        <lane id=":11449715050_3_0" index="0" disallow="pedestrian tram rail_urban rail rail_electric rail_fast ship container cable_car subway aircraft wheelchair scooter drone" speed="13.89" length="11.00" shape="488.78,219.31 488.02,222.47 487.28,224.63 486.05,226.50 483.81,228.82"/>
    </edge>
    <edge id=":11449715050_4" function="internal">
        <lane id=":11449715050_4_0" index="0" disallow="pedestrian tram rail_urban rail rail_electric rail_fast ship container cable_car subway aircraft wheelchair scooter drone" speed="13.89" length="11.04" shape="481.60,226.50 483.78,224.14 484.85,222.18 485.43,219.94 486.12,216.73"/>
    </edge>
    <edge id=":11449715050_5" function="internal">
        <lane id=":11449715050_5_0" index="0" allow="delivery bicycle" speed="9.72" length="3.16" shape="481.60,226.50 484.26,224.79"/>
    </edge>
    <edge id=":11449715050_6" function="internal">
        <lane id=":11449715050_6_0" index="0" allow="delivery bicycle" speed="9.72" length="8.88" shape="484.26,224.79 484.45,224.66 487.02,224.48 489.74,224.96 493.05,225.15"/>
    </edge>
    <edge id=":11449715050_c0" function="crossing" crossingEdges="315658900#2 -315658900#2">
        <lane id=":11449715050_c0_0" index="0" allow="pedestrian" speed="2.78" length="6.67" width="4.00" shape="484.09,218.29 489.87,221.63" outlineShape="485.09,216.56 490.87,219.90 489.76,222.13 489.35,223.64 483.70,220.38 483.79,220.05 484.11,218.44"/>
    </edge>
    <edge id=":11449715050_w0" function="walkingarea">