<?xml version="1.0" encoding="UTF-8"?>

<!-- generated on 2026-04-15 23:22:46.706257 by Eclipse SUMO randomTrips.py v1.26.0
<configuration>
    <net-file value="/Users/junlee/Desktop/2026-1/js/result/report_top12_seed4_2h/sumo_nets/cw_6122/network.net.xml"/>
    <output-trip-file value="/Users/junlee/Desktop/2026-1/js/result/report_top12_seed4_2h/sumo_nets/cw_6122/routes_seed45.trips.xml"/>
    <route-file value="/Users/junlee/Desktop/2026-1/js/result/report_top12_seed4_2h/sumo_nets/cw_6122/routes_seed45.rou.xml"/>
    <vehicle-class value="passenger"/>
    <seed value="45"/>
    <end value="1800.0"/>
    <period value="4.894037330789215"/>
</configuration>
-->

<!-- generated on 2026-04-15T23:22:46.684352+09:00 by Eclipse SUMO duarouter 1.26.0
<duarouterConfiguration xmlns:xsi="http://www.w3.org/2001/XMLSchema-instance" xsi:noNamespaceSchemaLocation="http://sumo.dlr.de/xsd/duarouterConfiguration.xsd">

    <input>
        <net-file value="/Users/junlee/Desktop/2026-1/js/result/report_top12_seed4_2h/sumo_nets/cw_6122/network.net.xml"/>
        <route-files value="/Users/junlee/Desktop/2026-1/js/result/report_top12_seed4_2h/sumo_nets/cw_6122/routes_seed45.trips.xml"/>
    </input>

    <output>
        <output-file value="/Users/junlee/Desktop/2026-1/js/result/report_top12_seed4_2h/sumo_nets/cw_6122/routes_seed45.rou.xml"/>
        <alternatives-output value="NUL"/>
    </output>

    <time>
        <begin value="0.0"/>
        <end value="1800.0"/>
    </time>

    <report>
        <no-warnings value="true"/>
        <ignore-errors value="true"/>
        <no-step-log value="true"/>
    </report>

</duarouterConfiguration>
-->

<routes xmlns:xsi="http://www.w3.org/2001/XMLSchema-instance" xsi:noNamespaceSchemaLocation="http://sumo.dlr.de/xsd/routes_file.xsd">
    <vType id="passenger" vClass="passenger"/>
    <vehicle id="0" type="passenger" depart="0.00">
        <route edges="-315658896#1 619147739#3 -955312948 -955312947#0"/>
    </vehicle>
    <vehicle id="1" type="passenger" depart="4.89">
        <route edges="-315658884#2 -315658884#1 315658897#0 315658897#1 315658897#2 315658897#3 315658897#4 315658897#5 -243542153#2"/>
    </vehicle>
    <vehicle id="2" type="passenger" depart="9.79">
        <route edges="-318747848#2 -315658884#2 -315658884#1 315658897#0 315658897#1 315658897#2 315658900#0 315658900#1 315658900#2 -464459667 -315658896#5"/>
    </vehicle>
    <vehicle id="3" type="passenger" depart="14.68">
        <route edges="-333972428#2 -333972428#1 -788296724#0 301285279#1 301285279#2 788296725 913406478 781983104#0 382947009 301285279#0 788296724#0 333972428#1 333972428#2 333972428#3"/>
    </vehicle>
    <vehicle id="4" type="passenger" depart="19.58">
        <route edges="-315658884#2 -315658884#1 619147739#2 619147739#3 781983103#1 781983103#2 243542153#1"/>
    </vehicle>
    <vehicle id="5" type="passenger" depart="24.47">
        <route edges="318747848#2 318747848#3 -315658896#2 315658897#2 -315658899#1 -315658899#0 781983104#0 382947009 301285279#0 788296724#0"/>
    </vehicle>
    <vehicle id="6" type="passenger" depart="29.36">
        <route edges="-315658897#2 315658896#2 -318747848#3 -318747848#2"/>
    </vehicle>
    <vehicle id="7" type="passenger" depart="34.26">
        <route edges="464459667 -315658900#2 -315658900#1 -315658900#0 -315658899#1 -315658899#0 921117704"/>
    </vehicle>
    <vehicle id="8" type="passenger" depart="39.15">
        <route edges="-315658896#2"/>
    </vehicle>
    <vehicle id="9" type="passenger" depart="44.05">
        <route edges="-955312947#0 619147739#3 781983103#1 781983103#2"/>
    </vehicle>
    <vehicle id="10" type="passenger" depart="48.94">
        <route edges="781983103#2 315658899#0 315658899#1 315658897#3 315658897#4 315658897#5 -243542153#2 -243542153#1 781983104#0 382947009 301285279#0 788296724#0 333972428#1 333972428#2"/>
    </vehicle>
    <vehicle id="11" type="passenger" depart="53.83">
        <route edges="619147739#3 781983103#1 781983103#2 315658899#0 315658899#1 315658900#0 315658900#1 315658900#2"/>
    </vehicle>
    <vehicle id="12" type="passenger" depart="58.73">
        <route edges="315658897#2 315658900#0 315658900#1 315658900#2 -464459667 -315658896#5 -315658896#4 -315658896#3 -318747848#3 -318747848#2 -315658884#2 -315658884#1"/>
    </vehicle>
    <vehicle id="13" type="passenger" depart="63.62">
        <route edges="78628775#0 78628775#2"/>
    </vehicle>
    <vehicle id="14" type="passenger" depart="68.52">
        <route edges="-581906883 788296725 913406478 315658899#0 315658899#1 315658900#0"/>
    </vehicle>
    <vehicle id="15" type="passenger" depart="73.41">
        <route edges="-243542153#2 -243542153#1 315658899#0 315658899#1 -315658897#2 315658896#2"/>
    </vehicle>
    <vehicle id="16" type="passenger" depart="78.30">
        <route edges="218915135#0 218915135#1 218915135#1-AddedOffRampEdge 218915135#2 315658899#0 315658899#1 -315658897#2 315658896#2 -318747848#3 -318747848#2 -318747848#1 777881144#1 777881145"/>
    </vehicle>
    <vehicle id="17" type="passenger" depart="83.20">
        <route edges="-315658897#0 619147739#2 315658896#1 315658897#2 -315658899#1 -315658899#0 781983104#0 382947009 301285279#0 301285279#1 301285279#2"/>
    </vehicle>
    <vehicle id="18" type="passenger" depart="88.09">
        <route edges="781983104#0 382947009 301285279#0 301285279#1 301285279#2 788296725 913406478 315658899#0 315658899#1"/>
    </vehicle>
    <vehicle id="19" type="passenger" depart="92.99">
        <route edges="-243542153#3 -315658897#5 -315658897#4 -315658897#3 -315658897#2 -315658896#1 619147739#3 781983103#1"/>
    </vehicle>
    <vehicle id="20" type="passenger" depart="97.88">
        <route edges="315658900#0 315658900#1 315658900#2 -464459667 -315658896#5 -315658896#4 -315658896#3 -315658896#2 -315658897#1 -315658897#0 619147739#2 315658896#1 315658896#2 315658896#3 315658896#4 315658896#5"/>
    </vehicle>
    <vehicle id="21" type="passenger" depart="102.77">
        <route edges="-315658897#3 -315658897#2 -315658896#1 619147739#3 781983103#1 781983103#2 315658899#0 315658899#1"/>
    </vehicle>
    <vehicle id="22" type="passenger" depart="107.67">
        <route edges="-315658896#3 -315658896#2 315658897#2 315658900#0"/>
    </vehicle>
    <vehicle id="23" type="passenger" depart="112.56">
        <route edges="315658897#0 315658897#1 -315658896#1 619147739#3 -955312948"/>
    </vehicle>
    <vehicle id="24" type="passenger" depart="117.46">
        <route edges="-318747848#2 -315658884#2 -315658884#1 315658897#0 315658897#1 315658897#2 -315658899#1 -315658899#0 781983104#0 382947009 301285279#0 301285279#1"/>
    </vehicle>
    <vehicle id="25" type="passenger" depart="122.35">
        <route edges="315658899#1 -315658897#2 315658896#2 315658896#3 315658896#4"/>
    </vehicle>
    <vehicle id="26" type="passenger" depart="127.24">
        <route edges="315658900#0 315658900#1 315658900#2 -464459667 -315658896#5 -315658896#4 -315658896#3 -315658896#2 -315658897#1 -315658897#0 619147739#2 315658896#1 315658896#2"/>
    </vehicle>
    <vehicle id="27" type="passenger" depart="132.14">
        <route edges="955312947#0 955312948 781983103#1 -955312947#1 -955312947#0 315658896#1 315658896#2 -318747848#3 -318747848#2 -318747848#1 777881144#1 777881145 777881147#1"/>
    </vehicle>
    <vehicle id="28" type="passenger" depart="137.03">
        <route edges="-315658896#2 -315658896#1 619147739#3 781983103#1 781983103#2 315658899#0"/>
    </vehicle>
    <vehicle id="29" type="passenger" depart="141.93">
        <route edges="619147739#0 619147739#1 315658897#0 315658897#1 315658897#2 -315658899#1 -315658899#0 781983104#0 781983104#1"/>
    </vehicle>
    <vehicle id="30" type="passenger" depart="146.82">
        <route edges="-315658884#1 619147739#2 315658896#1 -315658897#1 -315658897#0"/>
    </vehicle>
    <vehicle id="31" type="passenger" depart="151.72">
        <route edges="-955312947#1 955312948 781983103#1 781983103#2 315658899#0"/>
    </vehicle>
    <vehicle id="32" type="passenger" depart="156.61">
        <route edges="-315658896#1 619147739#3 -955312948 -955312947#0 315658896#1 315658897#2 -315658899#1 -315658899#0 781983104#0 781983104#1 333557072#1"/>
    </vehicle>
    <vehicle id="33" type="passenger" depart="161.50">
        <route edges="318747848#3 -315658896#2 315658897#2 -315658899#1 -315658899#0 781983104#0"/>
    </vehicle>
    <vehicle id="34" type="passenger" depart="166.40">
        <route edges="-315658884#2 -315658884#1 315658897#0 315658897#1 315658897#2 315658897#3 315658897#4"/>
    </vehicle>
    <vehicle id="35" type="passenger" depart="171.29">
        <route edges="-315658900#0 -315658897#2 -315658896#1 619147739#3 -955312948"/>
    </vehicle>
    <vehicle id="36" type="passenger" depart="176.19">
        <route edges="781983104#0 382947009 301285279#0 301285279#1 301285279#2 788296725 913406478 315658899#0 315658899#1 -315658897#2 315658896#2 315658896#3 315658896#4 315658896#5 464459667 -315658900#2 -315658900#1"/>
    </vehicle>
    <vehicle id="37" type="passenger" depart="181.08">
        <route edges="315658884#2 318747848#2 318747848#3 -315658896#2 315658897#2 -315658899#1 -315658899#0 781983104#0 781983104#1 333557072#1 333557072#2"/>
    </vehicle>
    <vehicle id="38" type="passenger" depart="185.97">
        <route edges="315658900#2 -464459667 -315658896#5 -315658896#4 -315658896#3 -315658896#2 315658897#2 315658897#3 315658897#4"/>
    </vehicle>
    <vehicle id="39" type="passenger" depart="190.87">
        <route edges="781983103#2 315658899#0 315658899#1 315658900#0 315658900#1"/>
    </vehicle>
    <vehicle id="40" type="passenger" depart="195.76">
        <route edges="78628775#0 78628775#2 78628770#1 318747848#1 -315658884#2 -315658884#1 315658897#0 315658897#1 315658897#2 315658900#0 315658900#1 315658900#2"/>
    </vehicle>
    <vehicle id="41" type="passenger" depart="200.66">
        <route edges="315658897#1 315658896#2 -318747848#3 -318747848#2 -315658884#2 -315658884#1"/>
    </vehicle>
    <vehicle id="42" type="passenger" depart="205.55">
        <route edges="78628775#0 78628775#2 78628770#1 318747848#1 318747848#2 318747848#3 315658896#3 315658896#4 315658896#5 464459667 -315658900#2"/>
    </vehicle>
    <vehicle id="43" type="passenger" depart="210.44">
        <route edges="315658899#1 -315658897#2 -315658896#1 619147739#3"/>
    </vehicle>
    <vehicle id="44" type="passenger" depart="215.34">
        <route edges="788296725 913406478 315658899#0 315658899#1 -315658897#2 -315658897#1 -315658897#0 619147739#2"/>
    </vehicle>
    <vehicle id="45" type="passenger" depart="220.23">
        <route edges="955312948 781983103#1 -955312947#1 -955312947#0 315658896#1 -315658897#1 -315658897#0 315658884#1"/>
    </vehicle>
    <vehicle id="46" type="passenger" depart="225.13">
        <route edges="78628770#1 318747848#1 -315658884#2 -315658884#1 315658897#0 315658897#1 315658897#2"/>
    </vehicle>
    <vehicle id="47" type="passenger" depart="230.02">
        <route edges="-955312947#0 315658896#1 315658896#2 -318747848#3 -318747848#2 -318747848#1 777881144#1 777881145"/>
    </vehicle>
    <vehicle id="48" type="passenger" depart="234.91">
        <route edges="-315658884#1 619147739#2 619147739#3 -955312948"/>
    </vehicle>
    <vehicle id="49" type="passenger" depart="239.81">
        <route edges="318747848#2 318747848#3 -315658896#2"/>
    </vehicle>
    <vehicle id="50" type="passenger" depart="244.70">
        <route edges="-315658899#1 -315658899#0 243542153#1"/>
    </vehicle>
    <vehicle id="51" type="passenger" depart="249.60">
        <route edges="315658897#1 315658897#2 -315658899#1 -315658899#0 781983104#0 382947009 301285279#0 301285279#1 301285279#2 581906883"/>
    </vehicle>
    <vehicle id="52" type="passenger" depart="254.49">
        <route edges="218915135#0 218915135#1 218915135#1-AddedOffRampEdge 218915135#2 315658899#0 315658899#1 315658897#3"/>
    </vehicle>
    <vehicle id="53" type="passenger" depart="259.38">
        <route edges="-315658896#2 315658897#2 315658900#0 315658900#1 315658900#2 315658900#3"/>
    </vehicle>
    <vehicle id="54" type="passenger" depart="264.28">
        <route edges="315658900#1 315658900#2 -464459667 -315658896#5 -315658896#4 -315658896#3 -315658896#2 315658897#2 315658900#0"/>
    </vehicle>
    <vehicle id="55" type="passenger" depart="269.17">
        <route edges="619147739#2 619147739#3 -955312948 955312947#1"/>
    </vehicle>
    <vehicle id="56" type="passenger" depart="274.07">
        <route edges="315658897#5 -243542153#2 -243542153#1 315658899#0 315658899#1 -315658897#2"/>
    </vehicle>
    <vehicle id="57" type="passenger" depart="278.96">
        <route edges="315658896#5 464459667 -315658900#2 -315658900#1 -315658900#0 -315658897#2 -315658896#1 619147739#3 -955312948 -955312947#0"/>
    </vehicle>
    <vehicle id="58" type="passenger" depart="283.85">
        <route edges="315658897#0 315658897#1 315658897#2 -315658899#1 -315658899#0 781983104#0 382947009 301285279#0 788296724#0"/>
    </vehicle>
    <vehicle id="59" type="passenger" depart="288.75">
        <route edges="-955312947#0 315658896#1 315658897#2 315658897#3 315658897#4 315658897#5 -243542153#2"/>
    </vehicle>
    <vehicle id="60" type="passenger" depart="293.64">
        <route edges="-315658896#4 -315658896#3 -315658896#2 315658897#2 315658900#0 315658900#1 315658900#2 -464459667 315658896#6"/>
    </vehicle>
    <vehicle id="61" type="passenger" depart="298.54">
        <route edges="218915135#0 218915135#1 218915135#1-AddedOffRampEdge 218915135#2 315658899#0 315658899#1 -315658897#2 -315658896#1 619147739#3 -955312948 -955312947#0"/>
    </vehicle>
    <vehicle id="62" type="passenger" depart="303.43">
        <route edges="218915135#2 315658899#0 315658899#1 315658900#0"/>
    </vehicle>
    <vehicle id="63" type="passenger" depart="308.32">
        <route edges="315658884#1 315658884#2 318747848#2 318747848#3 -315658896#2 315658897#2 -315658899#1 -315658899#0 781983104#0 382947009 301285279#0 788296724#0 -333972428#0"/>
    </vehicle>
    <vehicle id="64" type="passenger" depart="313.22">
        <route edges="781983103#2 315658899#0 315658899#1 -315658897#2 -315658896#1 619147739#3"/>
    </vehicle>
    <vehicle id="65" type="passenger" depart="318.11">
        <route edges="315658896#2 -318747848#3 -318747848#2 -318747848#1"/>
    </vehicle>
    <vehicle id="66" type="passenger" depart="323.01">
        <route edges="-315658896#2 315658897#2 -315658899#1 -315658899#0 781983104#0 382947009 301285279#0 788296724#0"/>
    </vehicle>
    <vehicle id="67" type="passenger" depart="327.90">
        <route edges="315658900#0 315658900#1 315658900#2 -464459667 -315658896#5 -315658896#4 -315658896#3 -315658896#2 315658897#2 -315658899#1 -315658899#0 781983104#0 382947009 301285279#0 301285279#1 301285279#2"/>
    </vehicle>
    <vehicle id="68" type="passenger" depart="332.79">
        <route edges="464459667 -315658900#2 -315658900#1 -315658900#0 -315658897#2 315658896#2 -318747848#3 -318747848#2 -318747848#1 777881144#1 777881145 777881147#1 777881147#3"/>
    </vehicle>
    <vehicle id="69" type="passenger" depart="337.69">
        <route edges="243542153#2 -315658897#5 -315658897#4 -315658897#3 315658900#0 315658900#1 315658900#2 -464459667 -315658896#5 -315658896#4"/>
    </vehicle>
    <vehicle id="70" type="passenger" depart="342.58">
        <route edges="78628770#1 318747848#1 318747848#2 318747848#3 315658896#3"/>
    </vehicle>
    <vehicle id="71" type="passenger" depart="347.48">
        <route edges="218915135#0 218915135#1 218915135#1-AddedOffRampEdge 218915135#2 243542153#1 243542153#2 -315658897#5 -315658897#4 -315658897#3 -315658899#1 -315658899#0"/>
    </vehicle>
    <vehicle id="72" type="passenger" depart="352.37">
        <route edges="315658884#2 318747848#2 318747848#3 -315658896#2 -315658896#1 619147739#3 781983103#1 781983103#2"/>
    </vehicle>
    <vehicle id="73" type="passenger" depart="357.26">
        <route edges="-315658896#4 -315658896#3 -315658896#2 -315658896#1 955312947#0 955312948"/>
    </vehicle>
    <vehicle id="74" type="passenger" depart="362.16">
        <route edges="315658896#1 315658897#2 315658900#0 315658900#1"/>
    </vehicle>
    <vehicle id="75" type="passenger" depart="367.05">
        <route edges="318747848#2 318747848#3 -315658896#2 -315658896#1 619147739#3 781983103#1 781983103#2 243542153#1 243542153#2"/>
    </vehicle>
    <vehicle id="76" type="passenger" depart="371.95">
        <route edges="-955312947#1 955312948 781983103#1 781983103#2"/>
    </vehicle>
    <vehicle id="77" type="passenger" depart="376.84">
        <route edges="315658897#2 315658900#0 315658900#1 315658900#2 -464459667 -315658896#5 -315658896#4 -315658896#3 -318747848#3 -318747848#2 -318747848#1 379943755#1"/>
    </vehicle>
    <vehicle id="78" type="passenger" depart="381.73">
        <route edges="301285279#2 788296725 913406478 781983104#0 781983104#1 333557072#1 333557072#2"/>
    </vehicle>
    <vehicle id="79" type="passenger" depart="386.63">
        <route edges="-581906883 788296725 913406478 315658899#0 315658899#1 -315658897#2 -315658896#1 619147739#3 -955312948"/>
    </vehicle>
    <vehicle id="80" type="passenger" depart="391.52">
        <route edges="788296725 913406478 315658899#0 315658899#1 -315658897#2 -315658896#1 619147739#3 781983103#1 781983103#2"/>
    </vehicle>
    <vehicle id="81" type="passenger" depart="396.42">
        <route edges="78628775#2 78628770#1 318747848#1 -315658884#2 -315658884#1 619147739#2 619147739#3"/>
    </vehicle>
    <vehicle id="82" type="passenger" depart="401.31">
        <route edges="315658899#0 315658899#1 -315658897#2 -315658896#1 619147739#3 781983103#1 781983103#2 921117704"/>
    </vehicle>
    <vehicle id="83" type="passenger" depart="406.21">
        <route edges="-464459667 -315658896#5 -315658896#4 -315658896#3 -315658896#2 315658897#2 315658900#0"/>
    </vehicle>
    <vehicle id="84" type="passenger" depart="411.10">
        <route edges="218915135#1 218915135#1-AddedOffRampEdge 218915135#2 243542153#1 243542153#2 -315658897#5"/>
    </vehicle>
    <vehicle id="85" type="passenger" depart="415.99">
        <route edges="-315658897#1 -315658897#0 619147739#2 315658896#1 315658897#2 315658900#0 315658900#1 315658900#2 -464459667 -315658896#5 -315658896#4"/>
    </vehicle>
    <vehicle id="86" type="passenger" depart="420.89">
        <route edges="-318747848#2 -315658884#2 -315658884#1 315658897#0 315658897#1 315658897#2 315658900#0 315658900#1 315658900#2 -464459667 -315658896#5 -315658896#4 -315658896#3"/>
    </vehicle>
    <vehicle id="87" type="passenger" depart="425.78">
        <route edges="777881144#1 777881145 777881147#1 777881147#3"/>
    </vehicle>
    <vehicle id="88" type="passenger" depart="430.68">
        <route edges="218915135#2 315658899#0 315658899#1"/>
    </vehicle>
    <vehicle id="89" type="passenger" depart="435.57">
        <route edges="955312947#1 781983103#2 315658899#0 315658899#1 -315658897#2"/>
    </vehicle>
    <vehicle id="90" type="passenger" depart="440.46">
        <route edges="-315658896#2 315658897#2 315658900#0 315658900#1 315658900#2 -464459667 -315658896#5"/>
    </vehicle>
    <vehicle id="91" type="passenger" depart="445.36">
        <route edges="-315658884#2 -315658884#1 619147739#2 619147739#3 781983103#1 781983103#2 315658899#0 315658899#1 -315658897#2"/>
    </vehicle>
    <vehicle id="92" type="passenger" depart="450.25">
        <route edges="-243542153#3 -315658897#5 -315658897#4 -315658897#3 315658900#0 315658900#1 315658900#2 -464459667 315658896#6"/>
    </vehicle>
    <vehicle id="93" type="passenger" depart="455.15">
        <route edges="318747848#1 -315658884#2 -315658884#1 315658897#0 315658897#1 315658897#2 315658897#3 315658897#4 315658897#5 -243542153#2 -243542153#1"/>
    </vehicle>
    <vehicle id="94" type="passenger" depart="460.04">
        <route edges="-315658900#1 -315658900#0 -315658899#1 -315658899#0 781983104#0 382947009 301285279#0 301285279#1"/>
    </vehicle>
    <vehicle id="95" type="passenger" depart="464.93">
        <route edges="218915135#0 218915135#1 218915135#1-AddedOffRampEdge 218915135#2 781983104#0 382947009 301285279#0 301285279#1 301285279#2 788296725"/>
    </vehicle>
    <vehicle id="96" type="passenger" depart="469.83">
        <route edges="315658897#4 315658897#5 -243542153#2 -243542153#1 315658899#0 315658899#1 -315658897#2 -315658896#1 619147739#3 781983103#1 -955312947#1"/>
    </vehicle>
    <vehicle id="97" type="passenger" depart="474.72">
        <route edges="315658899#1 -315658897#2 315658896#2 -318747848#3 -318747848#2 -315658884#2 -315658884#1"/>
    </vehicle>
    <vehicle id="98" type="passenger" depart="479.62">
        <route edges="-315658897#4 -315658897#3 -315658897#2 315658896#2 -318747848#3 -318747848#2 -318747848#1 777881144#1"/>
    </vehicle>
    <vehicle id="99" type="passenger" depart="484.51">
        <route edges="243542153#1 243542153#2 -315658897#5 -315658897#4 -315658897#3 -315658897#2 315658896#2"/>
    </vehicle>
    <vehicle id="100" type="passenger" depart="489.40">
        <route edges="-315658897#2 -315658897#1 -315658897#0 315658884#1"/>
    </vehicle>
    <vehicle id="101" type="passenger" depart="494.30">
        <route edges="-955312947#1 -955312947#0 315658896#1 315658897#2 -315658899#1 -315658899#0"/>
    </vehicle>
    <vehicle id="102" type="passenger" depart="499.19">
        <route edges="-318747848#2 -315658884#2 -315658884#1 315658897#0 315658897#1 315658896#2 315658896#3 315658896#4 315658896#5 464459667 -315658900#2 -315658900#1"/>
    </vehicle>
    <vehicle id="103" type="passenger" depart="504.09">
        <route edges="315658899#1 -315658897#2 315658896#2 -318747848#3 -318747848#2 -318747848#1 379943755#1"/>
    </vehicle>
    <vehicle id="104" type="passenger" depart="508.98">
        <route edges="781983103#2 315658899#0 315658899#1 -315658897#2 -315658897#1"/>
    </vehicle>
    <vehicle id="105" type="passenger" depart="513.87">
        <route edges="955312948 781983103#1 -955312947#1 -955312947#0 315658896#1 -315658897#1 -315658897#0 315658884#1 315658884#2 318747848#2 318747848#3"/>
    </vehicle>
    <vehicle id="106" type="passenger" depart="518.77">
        <route edges="315658897#4 315658897#5 -243542153#2 -243542153#1 315658899#0 315658899#1 -315658897#2 -315658896#1 619147739#3 781983103#1 -955312947#1"/>
    </vehicle>
    <vehicle id="107" type="passenger" depart="523.66">
        <route edges="-315658899#1 -315658899#0 243542153#1 243542153#2 -315658897#5 -315658897#4 -315658897#3 -315658897#2 -315658896#1 619147739#3 781983103#1"/>
    </vehicle>
    <vehicle id="108" type="passenger" depart="528.56">
        <route edges="218915135#2 315658899#0 315658899#1 -315658897#2 315658896#2 -318747848#3 -318747848#2 -318747848#1"/>
    </vehicle>
    <vehicle id="109" type="passenger" depart="533.45">
        <route edges="218915135#1-AddedOffRampEdge 218915135#2 315658899#0 315658899#1 -315658897#2 315658896#2 315658896#3 315658896#4 315658896#5 464459667 -315658900#2 -315658900#1"/>
    </vehicle>
    <vehicle id="110" type="passenger" depart="538.34">
        <route edges="218915135#1-AddedOffRampEdge 218915135#2 243542153#1 243542153#2 -315658897#5 -315658897#4 -315658897#3 -315658899#1 -315658899#0"/>
    </vehicle>
    <vehicle id="111" type="passenger" depart="543.24">
        <route edges="-333972428#2 -333972428#1 -788296724#0 301285279#1 301285279#2 788296725 913406478 315658899#0 315658899#1 -315658897#2 -315658897#1 -315658897#0 315658884#1 315658884#2 318747848#2 318747848#3"/>
    </vehicle>
    <vehicle id="112" type="passenger" depart="548.13">
        <route edges="78628775#2"/>
    </vehicle>
    <vehicle id="113" type="passenger" depart="553.03">
        <route edges="315658884#2 318747848#2 318747848#3 -315658896#2 315658897#2 315658897#3 315658897#4 315658897#5 -243542153#2"/>
    </vehicle>
    <vehicle id="114" type="passenger" depart="557.92">
        <route edges="315658900#2 -464459667 -315658896#5 -315658896#4 -315658896#3 -315658896#2 -315658897#1 -315658897#0 619147739#2 315658896#1 315658896#2 315658896#3"/>
    </vehicle>
    <vehicle id="115" type="passenger" depart="562.81">
        <route edges="-464459667 -315658896#5 -315658896#4 -315658896#3 -318747848#3 -318747848#2 -318747848#1 777881144#1 777881145 777881147#1 777881147#3"/>
    </vehicle>
    <vehicle id="116" type="passenger" depart="567.71">
        <route edges="-464459667 -315658896#5 -315658896#4 -315658896#3 -315658896#2 -315658897#1 -315658897#0 619147739#2 315658896#1 315658896#2 315658896#3 315658896#4"/>
    </vehicle>
    <vehicle id="117" type="passenger" depart="572.60">
        <route edges="301285279#1 301285279#2 788296725 913406478 781983104#0 382947009 301285279#0 788296724#0 333972428#1"/>
    </vehicle>
    <vehicle id="118" type="passenger" depart="577.50">
        <route edges="315658896#5 464459667 -315658900#2"/>
    </vehicle>
    <vehicle id="119" type="passenger" depart="582.39">
        <route edges="781983103#2 315658899#0 315658899#1 315658900#0 315658900#1 315658900#2 -464459667 315658896#6"/>
    </vehicle>
    <vehicle id="120" type="passenger" depart="587.28">
        <route edges="-315658897#2 315658896#2 315658896#3 315658896#4 315658896#5 464459667 -315658900#2 -315658900#1 -315658900#0 315658897#3"/>
    </vehicle>
    <vehicle id="121" type="passenger" depart="592.18">
        <route edges="781983103#1 781983103#2 243542153#1 243542153#2 -315658897#5 -315658897#4 -315658897#3"/>
    </vehicle>
    <vehicle id="122" type="passenger" depart="597.07">
        <route edges="-315658897#2 -315658897#1 -315658897#0 619147739#2 315658896#1 315658897#2 315658900#0 315658900#1"/>
    </vehicle>
    <vehicle id="123" type="passenger" depart="601.97">
        <route edges="-315658896#6 464459667 -315658900#2 -315658900#1 -315658900#0 -315658899#1 -315658899#0 781983104#0 382947009"/>
    </vehicle>
    <vehicle id="124" type="passenger" depart="606.86">
        <route edges="315658897#3 315658897#4 315658897#5 -243542153#2 -243542153#1 315658899#0 315658899#1 -315658897#2 -315658897#1 -315658897#0 315658884#1 315658884#2"/>
    </vehicle>
    <vehicle id="125" type="passenger" depart="611.75">
        <route edges="243542153#1 243542153#2 -315658897#5 -315658897#4 -315658897#3 -315658897#2 -315658896#1 955312947#0"/>
    </vehicle>
    <vehicle id="126" type="passenger" depart="616.65">
        <route edges="-333972428#1 -788296724#0 301285279#1 301285279#2 788296725 913406478 315658899#0 315658899#1 315658900#0 315658900#1 315658900#2 -464459667 -315658896#5 -315658896#4 -315658896#3 -315658896#2 315658897#2"/>
    </vehicle>
    <vehicle id="127" type="passenger" depart="621.54">
        <route edges="218915135#1-AddedOffRampEdge 218915135#2 781983104#0 382947009 301285279#0 301285279#1 301285279#2 788296725 913406478"/>
    </vehicle>
    <vehicle id="128" type="passenger" depart="626.44">
        <route edges="-955312947#0 315658896#1 315658897#2 315658897#3 315658897#4 315658897#5 -243542153#2 -243542153#1"/>
    </vehicle>
    <vehicle id="129" type="passenger" depart="631.33">
        <route edges="218915135#2 315658899#0 315658899#1 -315658897#2 315658896#2 -318747848#3 -318747848#2 -315658884#2 -315658884#1 315658897#0"/>
    </vehicle>
    <vehicle id="130" type="passenger" depart="636.22">
        <route edges="781983104#0 382947009 301285279#0 301285279#1 301285279#2 788296725 913406478 315658899#0 315658899#1 -315658897#2 315658896#2 -318747848#3 -318747848#2 -318747848#1"/>
    </vehicle>
    <vehicle id="131" type="passenger" depart="641.12">
        <route edges="315658899#0 315658899#1 -315658897#2 315658896#2 -318747848#3 -318747848#2 -318747848#1 777881144#1 777881145"/>
    </vehicle>
    <vehicle id="132" type="passenger" depart="646.01">
        <route edges="315658900#0 315658900#1 315658900#2 -464459667 -315658896#5 -315658896#4 -315658896#3 -315658896#2 315658897#2 315658897#3 315658897#4 315658897#5 243542153#3"/>
    </vehicle>
    <vehicle id="133" type="passenger" depart="650.91">
        <route edges="78628775#2 78628770#1 318747848#1 -315658884#2 -315658884#1 315658897#0 315658897#1 315658897#2 -315658899#1 -315658899#0 781983104#0 382947009 301285279#0 788296724#0 333972428#1 333972428#2 333972428#3"/>
    </vehicle>
    <vehicle id="134" type="passenger" depart="655.80">
        <route edges="218915135#1-AddedOffRampEdge 913405361"/>
    </vehicle>
    <vehicle id="135" type="passenger" depart="660.70">
        <route edges="781983104#0 382947009 301285279#0 301285279#1 301285279#2 788296725 913406478 315658899#0 315658899#1 -315658897#2 -315658896#1 955312947#0"/>
    </vehicle>
    <vehicle id="136" type="passenger" depart="665.59">
        <route edges="913405361"/>
    </vehicle>
    <vehicle id="137" type="passenger" depart="670.48">
        <route edges="218915135#0 218915135#1 218915135#1-AddedOffRampEdge 218915135#2 243542153#1"/>
    </vehicle>
    <vehicle id="138" type="passenger" depart="675.38">
        <route edges="788296725 913406478 315658899#0 315658899#1 -315658897#2 315658896#2 -318747848#3 -318747848#2 -318747848#1 777881144#1"/>
    </vehicle>
    <vehicle id="139" type="passenger" depart="680.27">
        <route edges="-315658897#4 -315658897#3 315658900#0"/>
    </vehicle>
    <vehicle id="140" type="passenger" depart="685.17">
        <route edges="-955312947#0 315658896#1 315658896#2 -318747848#3 -318747848#2 -318747848#1 379943755#1"/>
    </vehicle>
    <vehicle id="141" type="passenger" depart="690.06">
        <route edges="78628775#0 78628775#2 78628770#1 379943755#1"/>
    </vehicle>
    <vehicle id="142" type="passenger" depart="694.95">
        <route edges="315658884#1 315658884#2"/>
    </vehicle>