<?xml version="1.0" encoding="UTF-8"?>

<!-- generated on 2026-04-15 23:22:46.464728 by Eclipse SUMO randomTrips.py v1.26.0
<configuration>
    <net-file value="/Users/junlee/Desktop/2026-1/js/result/report_top12_seed4_2h/sumo_nets/cw_6122/network.net.xml"/>
    <output-trip-file value="/Users/junlee/Desktop/2026-1/js/result/report_top12_seed4_2h/sumo_nets/cw_6122/routes_seed45.trips.xml"/>
    <route-file value="/Users/junlee/Desktop/2026-1/js/result/report_top12_seed4_2h/sumo_nets/cw_6122/routes_seed45.rou.xml"/>
    <vehicle-class value="passenger"/>
    <seed value="45"/>
    <end value="1800.0"/>
    <period value="4.894037330789215"/>
</configuration>
-->

<routes xmlns:xsi="http://www.w3.org/2001/XMLSchema-instance" xsi:noNamespaceSchemaLocation="http://sumo.dlr.de/xsd/routes_file.xsd">
    <vType id="passenger" vClass="passenger"/>
    <trip id="0" depart="0.00" from="-315658896#1" to="-955312947#0" type="passenger"/>
    <trip id="1" depart="4.89" from="-315658884#2" to="-243542153#2" type="passenger"/>
    <trip id="2" depart="9.79" from="-318747848#2" to="-315658896#5" type="passenger"/>
    <trip id="3" depart="14.68" from="-333972428#2" to="333972428#3" type="passenger"/>
    <trip id="4" depart="19.58" from="-315658884#2" to="243542153#1" type="passenger"/>
    <trip id="5" depart="24.47" from="318747848#2" to="788296724#0" type="passenger"/>
    <trip id="6" depart="29.36" from="-315658897#2" to="-318747848#2" type="passenger"/>
    <trip id="7" depart="34.26" from="464459667" to="921117704" type="passenger"/>
    <trip id="8" depart="39.15" from="-315658896#2" to="-315658896#2" type="passenger"/>
    <trip id="9" depart="44.05" from="-955312947#0" to="781983103#2" type="passenger"/>
    <trip id="10" depart="48.94" from="781983103#2" to="333972428#2" type="passenger"/>
    <trip id="11" depart="53.83" from="619147739#3" to="315658900#2" type="passenger"/>
    <trip id="12" depart="58.73" from="315658897#2" to="-315658884#1" type="passenger"/>
    <trip id="13" depart="63.62" from="78628775#0" to="78628775#2" type="passenger"/>
    <trip id="14" depart="68.52" from="-581906883" to="315658900#0" type="passenger"/>
    <trip id="15" depart="73.41" from="-243542153#2" to="315658896#2" type="passenger"/>
    <trip id="16" depart="78.30" from="218915135#0" to="777881145" type="passenger"/>
    <trip id="17" depart="83.20" from="-315658897#0" to="301285279#2" type="passenger"/>
    <trip id="18" depart="88.09" from="781983104#0" to="315658899#1" type="passenger"/>
    <trip id="19" depart="92.99" from="-243542153#3" to="781983103#1" type="passenger"/>
    <trip id="20" depart="97.88" from="315658900#0" to="315658896#5" type="passenger"/>
    <trip id="21" depart="102.77" from="-315658897#3" to="315658899#1" type="passenger"/>
    <trip id="22" depart="107.67" from="-315658896#3" to="315658900#0" type="passenger"/>
    <trip id="23" depart="112.56" from="315658897#0" to="-955312948" type="passenger"/>
    <trip id="24" depart="117.46" from="-318747848#2" to="301285279#1" type="passenger"/>
    <trip id="25" depart="122.35" from="315658899#1" to="315658896#4" type="passenger"/>
    <trip id="26" depart="127.24" from="315658900#0" to="315658896#2" type="passenger"/>
    <trip id="27" depart="132.14" from="955312947#0" to="777881147#1" type="passenger"/>
    <trip id="28" depart="137.03" from="-315658896#2" to="315658899#0" type="passenger"/>
    <trip id="29" depart="141.93" from="619147739#0" to="781983104#1" type="passenger"/>
    <trip id="30" depart="146.82" from="-315658884#1" to="-315658897#0" type="passenger"/>
    <trip id="31" depart="151.72" from="-955312947#1" to="315658899#0" type="passenger"/>
    <trip id="32" depart="156.61" from="-315658896#1" to="333557072#1" type="passenger"/>
    <trip id="33" depart="161.50" from="318747848#3" to="781983104#0" type="passenger"/>
    <trip id="34" depart="166.40" from="-315658884#2" to="315658897#4" type="passenger"/>
    <trip id="35" depart="171.29" from="-315658900#0" to="-955312948" type="passenger"/>
    <trip id="36" depart="176.19" from="781983104#0" to="-315658900#1" type="passenger"/>
    <trip id="37" depart="181.08" from="315658884#2" to="333557072#2" type="passenger"/>
    <trip id="38" depart="185.97" from="315658900#2" to="315658897#4" type="passenger"/>
    <trip id="39" depart="190.87" from="781983103#2" to="315658900#1" type="passenger"/>
    <trip id="40" depart="195.76" from="78628775#0" to="315658900#2" type="passenger"/>
    <trip id="41" depart="200.66" from="315658897#1" to="-315658884#1" type="passenger"/>
    <trip id="42" depart="205.55" from="78628775#0" to="-315658900#2" type="passenger"/>
    <trip id="43" depart="210.44" from="315658899#1" to="619147739#3" type="passenger"/>
    <trip id="44" depart="215.34" from="788296725" to="619147739#2" type="passenger"/>
    <trip id="45" depart="220.23" from="955312948" to="315658884#1" type="passenger"/>
    <trip id="46" depart="225.13" from="78628770#1" to="315658897#2" type="passenger"/>
    <trip id="47" depart="230.02" from="-955312947#0" to="777881145" type="passenger"/>
    <trip id="48" depart="234.91" from="-315658884#1" to="-955312948" type="passenger"/>
    <trip id="49" depart="239.81" from="318747848#2" to="-315658896#2" type="passenger"/>
    <trip id="50" depart="244.70" from="-315658899#1" to="243542153#1" type="passenger"/>
    <trip id="51" depart="249.60" from="315658897#1" to="581906883" type="passenger"/>
    <trip id="52" depart="254.49" from="218915135#0" to="315658897#3" type="passenger"/>
    <trip id="53" depart="259.38" from="-315658896#2" to="315658900#3" type="passenger"/>
    <trip id="54" depart="264.28" from="315658900#1" to="315658900#0" type="passenger"/>
    <trip id="55" depart="269.17" from="619147739#2" to="955312947#1" type="passenger"/>
    <trip id="56" depart="274.07" from="315658897#5" to="-315658897#2" type="passenger"/>
    <trip id="57" depart="278.96" from="315658896#5" to="-955312947#0" type="passenger"/>
    <trip id="58" depart="283.85" from="315658897#0" to="788296724#0" type="passenger"/>
    <trip id="59" depart="288.75" from="-955312947#0" to="-243542153#2" type="passenger"/>
    <trip id="60" depart="293.64" from="-315658896#4" to="315658896#6" type="passenger"/>
    <trip id="61" depart="298.54" from="218915135#0" to="-955312947#0" type="passenger"/>
    <trip id="62" depart="303.43" from="218915135#2" to="315658900#0" type="passenger"/>
    <trip id="63" depart="308.32" from="315658884#1" to="-333972428#0" type="passenger"/>
    <trip id="64" depart="313.22" from="781983103#2" to="619147739#3" type="passenger"/>
    <trip id="65" depart="318.11" from="315658896#2" to="-318747848#1" type="passenger"/>
    <trip id="66" depart="323.01" from="-315658896#2" to="788296724#0" type="passenger"/>
    <trip id="67" depart="327.90" from="315658900#0" to="301285279#2" type="passenger"/>
    <trip id="68" depart="332.79" from="464459667" to="777881147#3" type="passenger"/>
    <trip id="69" depart="337.69" from="243542153#2" to="-315658896#4" type="passenger"/>
    <trip id="70" depart="342.58" from="78628770#1" to="315658896#3" type="passenger"/>
    <trip id="71" depart="347.48" from="218915135#0" to="-315658899#0" type="passenger"/>
    <trip id="72" depart="352.37" from="315658884#2" to="781983103#2" type="passenger"/>
    <trip id="73" depart="357.26" from="-315658896#4" to="955312948" type="passenger"/>
    <trip id="74" depart="362.16" from="315658896#1" to="315658900#1" type="passenger"/>
    <trip id="75" depart="367.05" from="318747848#2" to="243542153#2" type="passenger"/>
    <trip id="76" depart="371.95" from="-955312947#1" to="781983103#2" type="passenger"/>
    <trip id="77" depart="376.84" from="315658897#2" to="379943755#1" type="passenger"/>
    <trip id="78" depart="381.73" from="301285279#2" to="333557072#2" type="passenger"/>
    <trip id="79" depart="386.63" from="-581906883" to="-955312948" type="passenger"/>
    <trip id="80" depart="391.52" from="788296725" to="781983103#2" type="passenger"/>
    <trip id="81" depart="396.42" from="78628775#2" to="619147739#3" type="passenger"/>
    <trip id="82" depart="401.31" from="315658899#0" to="921117704" type="passenger"/>
    <trip id="83" depart="406.21" from="-464459667" to="315658900#0" type="passenger"/>
    <trip id="84" depart="411.10" from="218915135#1" to="-315658897#5" type="passenger"/>
    <trip id="85" depart="415.99" from="-315658897#1" to="-315658896#4" type="passenger"/>
    <trip id="86" depart="420.89" from="-318747848#2" to="-315658896#3" type="passenger"/>
    <trip id="87" depart="425.78" from="777881144#1" to="777881147#3" type="passenger"/>
    <trip id="88" depart="430.68" from="218915135#2" to="315658899#1" type="passenger"/>
    <trip id="89" depart="435.57" from="955312947#1" to="-315658897#2" type="passenger"/>
    <trip id="90" depart="440.46" from="-315658896#2" to="-315658896#5" type="passenger"/>
    <trip id="91" depart="445.36" from="-315658884#2" to="-315658897#2" type="passenger"/>
    <trip id="92" depart="450.25" from="-243542153#3" to="315658896#6" type="passenger"/>
    <trip id="93" depart="455.15" from="318747848#1" to="-243542153#1" type="passenger"/>
    <trip id="94" depart="460.04" from="-315658900#1" to="301285279#1" type="passenger"/>
    <trip id="95" depart="464.93" from="218915135#0" to="788296725" type="passenger"/>
    <trip id="96" depart="469.83" from="315658897#4" to="-955312947#1" type="passenger"/>
    <trip id="97" depart="474.72" from="315658899#1" to="-315658884#1" type="passenger"/>
    <trip id="98" depart="479.62" from="-315658897#4" to="777881144#1" type="passenger"/>
    <trip id="99" depart="484.51" from="243542153#1" to="315658896#2" type="passenger"/>
    <trip id="100" depart="489.40" from="-315658897#2" to="315658884#1" type="passenger"/>
    <trip id="101" depart="494.30" from="-955312947#1" to="-315658899#0" type="passenger"/>
    <trip id="102" depart="499.19" from="-318747848#2" to="-315658900#1" type="passenger"/>
    <trip id="103" depart="504.09" from="315658899#1" to="379943755#1" type="passenger"/>
    <trip id="104" depart="508.98" from="781983103#2" to="-315658897#1" type="passenger"/>
    <trip id="105" depart="513.87" from="955312948" to="318747848#3" type="passenger"/>
    <trip id="106" depart="518.77" from="315658897#4" to="-955312947#1" type="passenger"/>
    <trip id="107" depart="523.66" from="-315658899#1" to="781983103#1" type="passenger"/>
    <trip id="108" depart="528.56" from="218915135#2" to="-318747848#1" type="passenger"/>
    <trip id="109" depart="533.45" from="218915135#1-AddedOffRampEdge" to="-315658900#1" type="passenger"/>
    <trip id="110" depart="538.34" from="218915135#1-AddedOffRampEdge" to="-315658899#0" type="passenger"/>
    <trip id="111" depart="543.24" from="-333972428#2" to="318747848#3" type="passenger"/>
    <trip id="112" depart="548.13" from="78628775#2" to="78628775#2" type="passenger"/>
    <trip id="113" depart="553.03" from="315658884#2" to="-243542153#2" type="passenger"/>
    <trip id="114" depart="557.92" from="315658900#2" to="315658896#3" type="passenger"/>
    <trip id="115" depart="562.81" from="-464459667" to="777881147#3" type="passenger"/>
    <trip id="116" depart="567.71" from="-464459667" to="315658896#4" type="passenger"/>
    <trip id="117" depart="572.60" from="301285279#1" to="333972428#1" type="passenger"/>
    <trip id="118" depart="577.50" from="315658896#5" to="-315658900#2" type="passenger"/>
    <trip id="119" depart="582.39" from="781983103#2" to="315658896#6" type="passenger"/>
    <trip id="120" depart="587.28" from="-315658897#2" to="315658897#3" type="passenger"/>
    <trip id="121" depart="592.18" from="781983103#1" to="-315658897#3" type="passenger"/>
    <trip id="122" depart="597.07" from="-315658897#2" to="315658900#1" type="passenger"/>
    <trip id="123" depart="601.97" from="-315658896#6" to="382947009" type="passenger"/>
    <trip id="124" depart="606.86" from="315658897#3" to="315658884#2" type="passenger"/>
    <trip id="125" depart="611.75" from="243542153#1" to="955312947#0" type="passenger"/>
    <trip id="126" depart="616.65" from="-333972428#1" to="315658897#2" type="passenger"/>
    <trip id="127" depart="621.54" from="218915135#1-AddedOffRampEdge" to="913406478" type="passenger"/>
    <trip id="128" depart="626.44" from="-955312947#0" to="-243542153#1" type="passenger"/>
    <trip id="129" depart="631.33" from="218915135#2" to="315658897#0" type="passenger"/>
    <trip id="130" depart="636.22" from="781983104#0" to="-318747848#1" type="passenger"/>
    <trip id="131" depart="641.12" from="315658899#0" to="777881145" type="passenger"/>
    <trip id="132" depart="646.01" from="315658900#0" to="243542153#3" type="passenger"/>
    <trip id="133" depart="650.91" from="78628775#2" to="333972428#3" type="passenger"/>
    <trip id="134" depart="655.80" from="218915135#1-AddedOffRampEdge" to="913405361" type="passenger"/>
    <trip id="135" depart="660.70" from="781983104#0" to="955312947#0" type="passenger"/>
    <trip id="136" depart="665.59" from="913405361" to="913405361" type="passenger"/>
    <trip id="137" depart="670.48" from="218915135#0" to="243542153#1" type="passenger"/>
    <trip id="138" depart="675.38" from="788296725" to="777881144#1" type="passenger"/>
    <trip id="139" depart="680.27" from="-315658897#4" to="315658900#0" type="passenger"/>
    <trip id="140" depart="685.17" from="-955312947#0" to="379943755#1" type="passenger"/>
    <trip id="141" depart="690.06" from="78628775#0" to="379943755#1" type="passenger"/>
    <trip id="142" depart="694.95" from="315658884#1" to="315658884#2" type="passenger"/>
    <trip id="143" depart="699.85" from="-581906883" to="788296725" type="passenger"/>
    <trip id="144" depart="704.74" from="78628770#1" to="-318747848#3" type="passenger"/>
    <trip id="145" depart="709.64" from="-333972428#3" to="315658900#1" type="passenger"/>
    <trip id="146" depart="714.53" from="-315658896#4" to="333557072#2" type="passenger"/>
    <trip id="147" depart="719.42" from="301285279#2" to="-315658896#3" type="passenger"/>
    <trip id="148" depart="724.32" from="315658900#0" to="-318747848#1" type="passenger"/>
    <trip id="149" depart="729.21" from="955312947#1" to="-315658884#2" type="passenger"/>
    <trip id="150" depart="734.11" from="-315658896#6" to="-315658897#1" type="passenger"/>
    <trip id="151" depart="739.00" from="382947009" to="315658897#0" type="passenger"/>
    <trip id="152" depart="743.89" from="318747848#2" to="-315658897#5" type="passenger"/>
    <trip id="153" depart="748.79" from="315658899#0" to="464459667" type="passenger"/>
    <trip id="154" depart="753.68" from="-315658896#1" to="-315658897#5" type="passenger"/>
    <trip id="155" depart="758.58" from="-315658897#2" to="-315658899#0" type="passenger"/>
    <trip id="156" depart="763.47" from="-315658897#2" to="315658897#4" type="passenger"/>
    <trip id="157" depart="768.36" from="315658884#1" to="315658896#2" type="passenger"/>
    <trip id="158" depart="773.26" from="315658896#3" to="315658897#3" type="passenger"/>
    <trip id="159" depart="778.15" from="955312948" to="315658896#5" type="passenger"/>
    <trip id="160" depart="783.05" from="619147739#2" to="315658896#6" type="passenger"/>
    <trip id="161" depart="787.94" from="781983103#1" to="913406478" type="passenger"/>
    <trip id="162" depart="792.83" from="-315658897#5" to="781983104#1" type="passenger"/>
    <trip id="163" depart="797.73" from="315658899#0" to="781983104#1" type="passenger"/>
    <trip id="164" depart="802.62" from="315658899#1" to="-955312947#1" type="passenger"/>
    <trip id="165" depart="807.52" from="315658896#3" to="777881145" type="passenger"/>
    <trip id="166" depart="812.41" from="-464459667" to="315658899#0" type="passenger"/>
    <trip id="167" depart="817.30" from="-315658896#2" to="382947009" type="passenger"/>
    <trip id="168" depart="822.20" from="-315658899#1" to="955312947#1" type="passenger"/>
    <trip id="169" depart="827.09" from="315658896#2" to="-315658897#0" type="passenger"/>
    <trip id="170" depart="831.99" from="-315658896#1" to="777881145" type="passenger"/>
    <trip id="171" depart="836.88" from="318747848#1" to="318747848#2" type="passenger"/>
    <trip id="172" depart="841.77" from="-333972428#3" to="-315658896#4" type="passenger"/>
    <trip id="173" depart="846.67" from="788296725" to="315658900#3" type="passenger"/>
    <trip id="174" depart="851.56" from="-315658900#0" to="315658896#6" type="passenger"/>
    <trip id="175" depart="856.46" from="318747848#1" to="-315658897#3" type="passenger"/>
    <trip id="176" depart="861.35" from="315658900#2" to="315658896#6" type="passenger"/>
    <trip id="177" depart="866.24" from="619147739#2" to="315658896#2" type="passenger"/>
    <trip id="178" depart="871.14" from="218915135#2" to="301285279#1" type="passenger"/>
    <trip id="179" depart="876.03" from="315658896#1" to="-318747848#1" type="passenger"/>
    <trip id="180" depart="880.93" from="315658897#3" to="333557072#2" type="passenger"/>
    <trip id="181" depart="885.82" from="-315658884#1" to="333972428#3" type="passenger"/>
    <trip id="182" depart="890.71" from="788296725" to="-243542153#2" type="passenger"/>
    <trip id="183" depart="895.61" from="-315658900#0" to="777881144#1" type="passenger"/>
    <trip id="184" depart="900.50" from="619147739#2" to="315658897#4" type="passenger"/>
    <trip id="185" depart="905.40" from="-315658900#0" to="619147739#2" type="passenger"/>
    <trip id="186" depart="910.29" from="-318747848#3" to="-315658900#1" type="passenger"/>
    <trip id="187" depart="915.18" from="218915135#2" to="-243542153#1" type="passenger"/>
    <trip id="188" depart="920.08" from="788296725" to="-315658897#3" type="passenger"/>
    <trip id="189" depart="924.97" from="-315658900#3" to="315658896#3" type="passenger"/>
    <trip id="190" depart="929.87" from="-581906883" to="788296724#0" type="passenger"/>
    <trip id="191" depart="934.76" from="777881144#0" to="781983104#0" type="passenger"/>
    <trip id="192" depart="939.66" from="301285279#0" to="-315658884#2" type="passenger"/>
    <trip id="193" depart="944.55" from="-315658900#2" to="-315658897#2" type="passenger"/>
    <trip id="194" depart="949.44" from="-315658900#3" to="-315658900#1" type="passenger"/>
    <trip id="195" depart="954.34" from="318747848#3" to="243542153#1" type="passenger"/>
    <trip id="196" depart="959.23" from="243542153#2" to="243542153#2" type="passenger"/>
    <trip id="197" depart="964.13" from="78628775#2" to="-315658896#2" type="passenger"/>
    <trip id="198" depart="969.02" from="781983103#1" to="-315658896#2" type="passenger"/>
    <trip id="199" depart="973.91" from="-464459667" to="315658899#1" type="passenger"/>
    <trip id="200" depart="978.81" from="781983103#1" to="-243542153#2" type="passenger"/>
    <trip id="201" depart="983.70" from="-581906883" to="-315658899#1" type="passenger"/>
    <trip id="202" depart="988.60" from="315658897#4" to="955312947#0" type="passenger"/>
    <trip id="203" depart="993.49" from="315658897#0" to="-315658884#1" type="passenger"/>
    <trip id="204" depart="998.38" from="-315658900#2" to="-955312947#1" type="passenger"/>
    <trip id="205" depart="1003.28" from="-315658896#3" to="581906883" type="passenger"/>
    <trip id="206" depart="1008.17" from="-243542153#2" to="777881144#1" type="passenger"/>
    <trip id="207" depart="1013.07" from="788296725" to="-315658900#1" type="passenger"/>
    <trip id="208" depart="1017.96" from="-315658900#1" to="-315658899#1" type="passenger"/>
    <trip id="209" depart="1022.85" from="218915135#0" to="781983103#2" type="passenger"/>
    <trip id="210" depart="1027.75" from="777881144#0" to="-315658896#5" type="passenger"/>
    <trip id="211" depart="1032.64" from="-315658896#4" to="619147739#2" type="passenger"/>
    <trip id="212" depart="1037.54" from="-333972428#1" to="315658896#4" type="passenger"/>
    <trip id="213" depart="1042.43" from="218915135#0" to="315658897#5" type="passenger"/>
    <trip id="214" depart="1047.32" from="-315658896#3" to="-315658897#0" type="passenger"/>
    <trip id="215" depart="1052.22" from="-464459667" to="-315658899#1" type="passenger"/>
    <trip id="216" depart="1057.11" from="788296725" to="-315658899#0" type="passenger"/>
    <trip id="217" depart="1062.01" from="619147739#0" to="315658900#3" type="passenger"/>
    <trip id="218" depart="1066.90" from="464459667" to="-315658896#4" type="passenger"/>
    <trip id="219" depart="1071.79" from="788296725" to="-243542153#2" type="passenger"/>
    <trip id="220" depart="1076.69" from="315658896#5" to="-955312947#1" type="passenger"/>
    <trip id="221" depart="1081.58" from="-315658896#6" to="619147739#3" type="passenger"/>
    <trip id="222" depart="1086.48" from="301285279#2" to="-315658897#1" type="passenger"/>
    <trip id="223" depart="1091.37" from="-315658899#0" to="315658899#0" type="passenger"/>
    <trip id="224" depart="1096.26" from="315658896#3" to="315658884#1" type="passenger"/>
    <trip id="225" depart="1101.16" from="781983103#1" to="315658884#2" type="passenger"/>
    <trip id="226" depart="1106.05" from="-315658896#1" to="315658884#1" type="passenger"/>
    <trip id="227" depart="1110.95" from="-315658900#2" to="301285279#1" type="passenger"/>
    <trip id="228" depart="1115.84" from="-315658896#4" to="333557072#2" type="passenger"/>
    <trip id="229" depart="1120.73" from="318747848#1" to="315658899#1" type="passenger"/>
    <trip id="230" depart="1125.63" from="-315658897#5" to="921117704" type="passenger"/>
    <trip id="231" depart="1130.52" from="777881144#0" to="-315658899#1" type="passenger"/>
    <trip id="232" depart="1135.42" from="301285279#2" to="301285279#0" type="passenger"/>
    <trip id="233" depart="1140.31" from="-315658884#2" to="-315658900#1" type="passenger"/>
    <trip id="234" depart="1145.20" from="955312947#0" to="619147739#3" type="passenger"/>
    <trip id="235" depart="1150.10" from="-315658884#2" to="-315658884#1" type="passenger"/>
    <trip id="236" depart="1154.99" from="-315658899#0" to="315658896#5" type="passenger"/>
    <trip id="237" depart="1159.89" from="-315658900#2" to="921117704" type="passenger"/>
    <trip id="238" depart="1164.78" from="78628775#2" to="333972428#2" type="passenger"/>
    <trip id="239" depart="1169.67" from="-315658896#6" to="301285279#1" type="passenger"/>
    <trip id="240" depart="1174.57" from="-333972428#2" to="-315658897#5" type="passenger"/>
    <trip id="241" depart="1179.46" from="315658896#5" to="-315658896#4" type="passenger"/>
    <trip id="242" depart="1184.36" from="-243542153#2" to="-318747848#2" type="passenger"/>
    <trip id="243" depart="1189.25" from="-315658897#5" to="-318747848#1" type="passenger"/>
    <trip id="244" depart="1194.15" from="-318747848#2" to="333972428#3" type="passenger"/>
    <trip id="245" depart="1199.04" from="218915135#0" to="-301285279#2" type="passenger"/>
    <trip id="246" depart="1203.93" from="78628775#2" to="301285279#0" type="passenger"/>
    <trip id="247" depart="1208.83" from="318747848#2" to="379943755#1" type="passenger"/>
    <trip id="248" depart="1213.72" from="-315658896#4" to="777881145" type="passenger"/>
    <trip id="249" depart="1218.62" from="619147739#2" to="315658896#2" type="passenger"/>
    <trip id="250" depart="1223.51" from="318747848#2" to="-955312947#1" type="passenger"/>
    <trip id="251" depart="1228.40" from="315658896#1" to="-315658896#1" type="passenger"/>
    <trip id="252" depart="1233.30" from="913406478" to="243542153#3" type="passenger"/>
    <trip id="253" depart="1238.19" from="-315658896#5" to="913406478" type="passenger"/>
    <trip id="254" depart="1243.09" from="619147739#1" to="788296724#0" type="passenger"/>
    <trip id="255" depart="1247.98" from="243542153#1" to="315658884#1" type="passenger"/>
    <trip id="256" depart="1252.87" from="315658900#1" to="315658896#6" type="passenger"/>
    <trip id="257" depart="1257.77" from="-318747848#3" to="315658900#3" type="passenger"/>
    <trip id="258" depart="1262.66" from="-333972428#2" to="-315658884#2" type="passenger"/>
    <trip id="259" depart="1267.56" from="-315658896#2" to="777881144#1" type="passenger"/>
    <trip id="260" depart="1272.45" from="-315658897#2" to="781983103#1" type="passenger"/>
    <trip id="261" depart="1277.34" from="781983103#1" to="315658899#1" type="passenger"/>
    <trip id="262" depart="1282.24" from="-315658897#1" to="315658899#0" type="passenger"/>
    <trip id="263" depart="1287.13" from="-315658896#2" to="-315658897#2" type="passenger"/>
    <trip id="264" depart="1292.03" from="913406478" to="315658896#5" type="passenger"/>
    <trip id="265" depart="1296.92" from="619147739#0" to="781983104#1" type="passenger"/>
    <trip id="266" depart="1301.81" from="315658897#2" to="-315658900#2" type="passenger"/>
    <trip id="267" depart="1306.71" from="318747848#2" to="243542153#3" type="passenger"/>
    <trip id="268" depart="1311.60" from="619147739#1" to="301285279#2" type="passenger"/>
    <trip id="269" depart="1316.50" from="-333972428#1" to="315658900#1" type="passenger"/>
    <trip id="270" depart="1321.39" from="315658897#4" to="315658896#2" type="passenger"/>
    <trip id="271" depart="1326.28" from="333972428#0" to="777881147#1" type="passenger"/>
    <trip id="272" depart="1331.18" from="301285279#1" to="955312947#1" type="passenger"/>
    <trip id="273" depart="1336.07" from="218915135#1-AddedOffRampEdge" to="333557072#1" type="passenger"/>
    <trip id="274" depart="1340.97" from="315658897#0" to="315658900#1" type="passenger"/>
    <trip id="275" depart="1345.86" from="-315658897#3" to="-243542153#2" type="passenger"/>
    <trip id="276" depart="1350.75" from="-315658900#3" to="-315658897#0" type="passenger"/>
    <trip id="277" depart="1355.65" from="315658896#4" to="-315658897#5" type="passenger"/>
    <trip id="278" depart="1360.54" from="-243542153#1" to="619147739#2" type="passenger"/>
    <trip id="279" depart="1365.44" from="788296725" to="-315658884#2" type="passenger"/>
    <trip id="280" depart="1370.33" from="333972428#2" to="333972428#2" type="passenger"/>
    <trip id="281" depart="1375.22" from="-315658900#0" to="777881147#1" type="passenger"/>
    <trip id="282" depart="1380.12" from="781983103#2" to="-315658900#1" type="passenger"/>
    <trip id="283" depart="1385.01" from="218915135#0" to="218915135#1-AddedOffRampEdge" type="passenger"/>
    <trip id="284" depart="1389.91" from="-581906883" to="-315658897#4" type="passenger"/>
    <trip id="285" depart="1394.80" from="-315658897#0" to="-315658896#2" type="passenger"/>
    <trip id="286" depart="1399.69" from="-315658897#1" to="777881147#3" type="passenger"/>
    <trip id="287" depart="1404.59" from="315658884#2" to="-955312948" type="passenger"/>
    <trip id="288" depart="1409.48" from="-315658900#1" to="315658896#3" type="passenger"/>
    <trip id="289" depart="1414.38" from="619147739#3" to="-315658884#2" type="passenger"/>
    <trip id="290" depart="1419.27" from="315658896#2" to="-315658896#3" type="passenger"/>
    <trip id="291" depart="1424.16" from="218915135#2" to="315658897#1" type="passenger"/>
    <trip id="292" depart="1429.06" from="315658900#2" to="333972428#2" type="passenger"/>
    <trip id="293" depart="1433.95" from="913406478" to="781983103#2" type="passenger"/>
    <trip id="294" depart="1438.85" from="-318747848#2" to="-315658884#1" type="passenger"/>
    <trip id="295" depart="1443.74" from="-315658896#5" to="-333972428#0" type="passenger"/>
    <trip id="296" depart="1448.64" from="-315658900#0" to="619147739#2" type="passenger"/>
    <trip id="297" depart="1453.53" from="315658896#1" to="619147739#2" type="passenger"/>
    <trip id="298" depart="1458.42" from="301285279#1" to="777881144#1" type="passenger"/>
    <trip id="299" depart="1463.32" from="-315658897#2" to="301285279#0" type="passenger"/>
    <trip id="300" depart="1468.21" from="243542153#2" to="315658900#0" type="passenger"/>
    <trip id="301" depart="1473.11" from="315658900#0" to="315658900#0" type="passenger"/>
    <trip id="302" depart="1478.00" from="-315658900#3" to="-315658884#1" type="passenger"/>
    <trip id="303" depart="1482.89" from="315658897#5" to="781983104#1" type="passenger"/>
    <trip id="304" depart="1487.79" from="-315658897#5" to="-315658896#4" type="passenger"/>
    <trip id="305" depart="1492.68" from="315658897#0" to="777881147#1" type="passenger"/>
    <trip id="306" depart="1497.58" from="243542153#1" to="315658897#4" type="passenger"/>
    <trip id="307" depart="1502.47" from="243542153#1" to="243542153#3" type="passenger"/>
    <trip id="308" depart="1507.36" from="-788296724#0" to="-315658897#3" type="passenger"/>
    <trip id="309" depart="1512.26" from="-315658897#1" to="-315658900#2" type="passenger"/>
    <trip id="310" depart="1517.15" from="218915135#0" to="-955312948" type="passenger"/>
    <trip id="311" depart="1522.05" from="-243542153#1" to="315658896#4" type="passenger"/>
    <trip id="312" depart="1526.94" from="-315658899#0" to="-333972428#0" type="passenger"/>
    <trip id="313" depart="1531.83" from="-318747848#3" to="315658884#2" type="passenger"/>
    <trip id="314" depart="1536.73" from="-315658897#4" to="315658900#1" type="passenger"/>
    <trip id="315" depart="1541.62" from="382947009" to="315658897#4" type="passenger"/>
    <trip id="316" depart="1546.52" from="-243542153#3" to="-318747848#2" type="passenger"/>
    <trip id="317" depart="1551.41" from="-581906883" to="955312947#1" type="passenger"/>
    <trip id="318" depart="1556.30" from="777881144#0" to="781983103#1" type="passenger"/>
    <trip id="319" depart="1561.20" from="-333972428#1" to="315658896#5" type="passenger"/>
    <trip id="320" depart="1566.09" from="318747848#1" to="-315658896#1" type="passenger"/>