<?xml version="1.0" encoding="UTF-8"?>

<!-- generated on 2026-04-17 02:50:29.242572 by Eclipse SUMO randomTrips.py v1.26.0
<configuration>
    <net-file value="/Users/junlee/Desktop/2026-1/js/result/tradeoff_pet_top12_seed12_60min_20260417_024953/sumo_nets/cw_6213/network.net.xml"/>
    <output-trip-file value="/Users/junlee/Desktop/2026-1/js/result/tradeoff_pet_top12_seed12_60min_20260417_024953/sumo_nets/cw_6213/routes_seed45.trips.xml"/>
    <route-file value="/Users/junlee/Desktop/2026-1/js/result/tradeoff_pet_top12_seed12_60min_20260417_024953/sumo_nets/cw_6213/routes_seed45.rou.xml"/>
    <vehicle-class value="passenger"/>
    <seed value="45"/>
    <period value="0.8156728884648693"/>
</configuration>
-->

<routes xmlns:xsi="http://www.w3.org/2001/XMLSchema-instance" xsi:noNamespaceSchemaLocation="http://sumo.dlr.de/xsd/routes_file.xsd">
    <vType id="passenger" vClass="passenger"/>
    <trip id="0" depart="0.00" from="-315658897#2" to="1339655667#0" type="passenger"/>
    <trip id="1" depart="0.82" from="-315658897#1" to="-315658884#1" type="passenger"/>
    <trip id="2" depart="1.63" from="-770860549" to="619147739#5" type="passenger"/>
    <trip id="3" depart="2.45" from="-315658897#1" to="1339697075#6" type="passenger"/>
    <trip id="4" depart="3.26" from="-318747848#2" to="-318747848#3" type="passenger"/>
    <trip id="5" depart="4.08" from="619147739#4" to="379943753#0" type="passenger"/>
    <trip id="6" depart="4.89" from="770860549" to="619147739#4" type="passenger"/>
    <trip id="7" depart="5.71" from="773060732#3" to="777881144#0" type="passenger"/>
    <trip id="8" depart="6.53" from="-315658884#2" to="315658897#1" type="passenger"/>
    <trip id="9" depart="7.34" from="-315658897#2" to="1339697075#4" type="passenger"/>
    <trip id="10" depart="8.16" from="-770860548#1" to="-770860548#1" type="passenger"/>
    <trip id="11" depart="8.97" from="-315658896#2" to="778973690" type="passenger"/>
    <trip id="12" depart="9.79" from="333557072#2" to="1339697075#1" type="passenger"/>
    <trip id="13" depart="10.60" from="379943755#1" to="315658897#0" type="passenger"/>
    <trip id="14" depart="11.42" from="78628775#1" to="770860548#2" type="passenger"/>
    <trip id="15" depart="12.24" from="-315658897#0" to="-351672100#0" type="passenger"/>
    <trip id="16" depart="13.05" from="-315658897#2" to="428544127" type="passenger"/>
    <trip id="17" depart="13.87" from="619147739#5" to="315658884#3" type="passenger"/>
    <trip id="18" depart="14.68" from="770860548#1" to="1339697075#4" type="passenger"/>
    <trip id="19" depart="15.50" from="712288152#2" to="1339697075#3" type="passenger"/>
    <trip id="20" depart="16.31" from="-651817398#2" to="1339697075#1" type="passenger"/>
    <trip id="21" depart="17.13" from="78628770#1" to="1339697075#5" type="passenger"/>
    <trip id="22" depart="17.94" from="333557072#3" to="-315658896#2" type="passenger"/>
    <trip id="23" depart="18.76" from="-651817398#1" to="-315658896#1" type="passenger"/>
    <trip id="24" depart="19.58" from="351672100#4" to="1339697075#2" type="passenger"/>
    <trip id="25" depart="20.39" from="379943753#1" to="712288152#0" type="passenger"/>
    <trip id="26" depart="21.21" from="770860548#0" to="1339697075#3" type="passenger"/>
    <trip id="27" depart="22.02" from="821457682#1" to="315658896#1" type="passenger"/>
    <trip id="28" depart="22.84" from="-315658897#0" to="1339697075#1" type="passenger"/>
    <trip id="29" depart="23.65" from="318747848#7" to="1339697075#4" type="passenger"/>
    <trip id="30" depart="24.47" from="-651817398#1" to="1339697075#6" type="passenger"/>
    <trip id="31" depart="25.29" from="619147739#4" to="379943755#1" type="passenger"/>
    <trip id="32" depart="26.10" from="-318747848#3" to="379943753#0" type="passenger"/>
    <trip id="33" depart="26.92" from="770860549" to="379943753#1" type="passenger"/>
    <trip id="34" depart="27.73" from="333557072#0" to="1339655667#1" type="passenger"/>
    <trip id="35" depart="28.55" from="333557072#2" to="777881145" type="passenger"/>
    <trip id="36" depart="29.36" from="-318747848#6" to="318747848#4" type="passenger"/>
    <trip id="37" depart="30.18" from="770860548#0" to="-315658896#1" type="passenger"/>
    <trip id="38" depart="31.00" from="770860549" to="712288152#0" type="passenger"/>
    <trip id="39" depart="31.81" from="773060732#2" to="-318747848#7" type="passenger"/>
    <trip id="40" depart="32.63" from="-318747848#3" to="777881145" type="passenger"/>
    <trip id="41" depart="33.44" from="379943753#1" to="315658884#4" type="passenger"/>
    <trip id="42" depart="34.26" from="315658884#4" to="-318747848#5" type="passenger"/>
    <trip id="43" depart="35.07" from="773060732#2" to="315658897#2" type="passenger"/>
    <trip id="44" depart="35.89" from="-318747848#5" to="955312947" type="passenger"/>
    <trip id="45" depart="36.71" from="1339655667#0" to="1339697075#2" type="passenger"/>
    <trip id="46" depart="37.52" from="318747848#6" to="-315658884#4" type="passenger"/>
    <trip id="47" depart="38.34" from="777881144#0" to="712288152#0" type="passenger"/>
    <trip id="48" depart="39.15" from="384030401#1" to="1339697075#3" type="passenger"/>
    <trip id="49" depart="39.97" from="821457682#0" to="777881144#1" type="passenger"/>
    <trip id="50" depart="40.78" from="770860548#1" to="428544127" type="passenger"/>
    <trip id="51" depart="41.60" from="821457682#0" to="-351672100#1" type="passenger"/>
    <trip id="52" depart="42.41" from="-318747848#2" to="-318747848#6" type="passenger"/>
    <trip id="53" depart="43.23" from="-315658897#1" to="-351672100#2" type="passenger"/>
    <trip id="54" depart="44.05" from="-315658884#3" to="318747848#4" type="passenger"/>
    <trip id="55" depart="44.86" from="-315658884#3" to="-315658884#4" type="passenger"/>
    <trip id="56" depart="45.68" from="-651817398#3" to="315658884#3" type="passenger"/>
    <trip id="57" depart="46.49" from="351672100#2" to="1339697075#1" type="passenger"/>
    <trip id="58" depart="47.31" from="315658884#3" to="315658897#0" type="passenger"/>
    <trip id="59" depart="48.12" from="712288152#2" to="379943753#0" type="passenger"/>
    <trip id="60" depart="48.94" from="78628770#1" to="-384030401#1" type="passenger"/>
    <trip id="61" depart="49.76" from="379943753#1" to="619147739#6" type="passenger"/>
    <trip id="62" depart="50.57" from="770860565" to="-351672100#0" type="passenger"/>
    <trip id="63" depart="51.39" from="351672100#2" to="1339697074" type="passenger"/>
    <trip id="64" depart="52.20" from="-770860549" to="384030395" type="passenger"/>
    <trip id="65" depart="53.02" from="777881144#0" to="777881144#1" type="passenger"/>
    <trip id="66" depart="53.83" from="712288152#2" to="315658897#1" type="passenger"/>
    <trip id="67" depart="54.65" from="318747848#3" to="-315658884#2" type="passenger"/>
    <trip id="68" depart="55.47" from="770860565" to="318747848#5" type="passenger"/>
    <trip id="69" depart="56.28" from="315658884#2" to="318747848#5" type="passenger"/>
    <trip id="70" depart="57.10" from="379943753#1" to="1339697076#1" type="passenger"/>
    <trip id="71" depart="57.91" from="777881144#0" to="619147739#5" type="passenger"/>
    <trip id="72" depart="58.73" from="78628770#1" to="778973690" type="passenger"/>
    <trip id="73" depart="59.54" from="1339697075#6" to="1339697075#6" type="passenger"/>
    <trip id="74" depart="60.36" from="78628775#2" to="-315658884#3" type="passenger"/>
    <trip id="75" depart="61.18" from="773060732#4" to="619147739#6" type="passenger"/>
    <trip id="76" depart="61.99" from="315658897#1" to="315658896#2" type="passenger"/>
    <trip id="77" depart="62.81" from="619147739#1" to="384030395" type="passenger"/>
    <trip id="78" depart="63.62" from="-778973690" to="37403486#1" type="passenger"/>
    <trip id="79" depart="64.44" from="315658897#0" to="-318747848#4" type="passenger"/>
    <trip id="80" depart="65.25" from="770860548#0" to="318747848#5" type="passenger"/>
    <trip id="81" depart="66.07" from="78628775#2" to="-315658897#0" type="passenger"/>
    <trip id="82" depart="66.89" from="-315658896#2" to="1339697075#4" type="passenger"/>
    <trip id="83" depart="67.70" from="-318747848#7" to="-351672100#0" type="passenger"/>
    <trip id="84" depart="68.52" from="-315658897#2" to="-37403486#2" type="passenger"/>
    <trip id="85" depart="69.33" from="770860548#1" to="318747848#7" type="passenger"/>
    <trip id="86" depart="70.15" from="315658884#4" to="1339697075#4" type="passenger"/>
    <trip id="87" depart="70.96" from="318747848#2" to="315658897#1" type="passenger"/>
    <trip id="88" depart="71.78" from="821457682#1" to="318747848#2" type="passenger"/>
    <trip id="89" depart="72.59" from="379943753#0" to="1339697074" type="passenger"/>
    <trip id="90" depart="73.41" from="773060732#1" to="619147739#4" type="passenger"/>
    <trip id="91" depart="74.23" from="318747848#5" to="-318747848#7" type="passenger"/>
    <trip id="92" depart="75.04" from="-315658897#2" to="712288152#2" type="passenger"/>
    <trip id="93" depart="75.86" from="318747848#5" to="379943753#1" type="passenger"/>
    <trip id="94" depart="76.67" from="619147739#4" to="315658896#1" type="passenger"/>
    <trip id="95" depart="77.49" from="-651817398#2" to="318747848#4" type="passenger"/>
    <trip id="96" depart="78.30" from="384030401#1" to="-351672100#4" type="passenger"/>
    <trip id="97" depart="79.12" from="315658884#2" to="315658884#2" type="passenger"/>
    <trip id="98" depart="79.94" from="773060732#1" to="-318747848#4" type="passenger"/>
    <trip id="99" depart="80.75" from="-315658897#0" to="619147739#4" type="passenger"/>
    <trip id="100" depart="81.57" from="-651817398#2" to="712288152#2" type="passenger"/>
    <trip id="101" depart="82.38" from="-712288152#1" to="-351672100#4" type="passenger"/>
    <trip id="102" depart="83.20" from="315658884#2" to="-1339655670" type="passenger"/>
    <trip id="103" depart="84.01" from="315658896#2" to="-315658897#0" type="passenger"/>
    <trip id="104" depart="84.83" from="-651817398#5" to="-351672100#2" type="passenger"/>
    <trip id="105" depart="85.65" from="-315658896#2" to="1339697076#1" type="passenger"/>
    <trip id="106" depart="86.46" from="78628775#2" to="1339655667#0" type="passenger"/>
    <trip id="107" depart="87.28" from="619147739#0" to="1339697075#6" type="passenger"/>
    <trip id="108" depart="88.09" from="315658884#4" to="1339697076#0" type="passenger"/>
    <trip id="109" depart="88.91" from="777881144#0" to="-318747848#3" type="passenger"/>
    <trip id="110" depart="89.72" from="770860549" to="-318747848#2" type="passenger"/>
    <trip id="111" depart="90.54" from="770860549" to="-315658884#1" type="passenger"/>
    <trip id="112" depart="91.36" from="1339655667#1" to="-384030401#1" type="passenger"/>
    <trip id="113" depart="92.17" from="333557072#2" to="-315658896#2" type="passenger"/>
    <trip id="114" depart="92.99" from="-651817398#5" to="1339697074" type="passenger"/>
    <trip id="115" depart="93.80" from="-315658884#2" to="712288152#1" type="passenger"/>
    <trip id="116" depart="94.62" from="-651817398#3" to="-384030401#1" type="passenger"/>
    <trip id="117" depart="95.43" from="712288152#1" to="-318747848#6" type="passenger"/>
    <trip id="118" depart="96.25" from="-770860548#2" to="315658897#2" type="passenger"/>
    <trip id="119" depart="97.07" from="770860548#1" to="821457682#0" type="passenger"/>
    <trip id="120" depart="97.88" from="712288152#0" to="778973690" type="passenger"/>
    <trip id="121" depart="98.70" from="-318747848#4" to="-318747848#7" type="passenger"/>
    <trip id="122" depart="99.51" from="-955312947" to="-464763971" type="passenger"/>
    <trip id="123" depart="100.33" from="773060732#1" to="-318747848#7" type="passenger"/>
    <trip id="124" depart="101.14" from="773060732#1" to="1339697074" type="passenger"/>
    <trip id="125" depart="101.96" from="-315658884#3" to="778973690" type="passenger"/>
    <trip id="126" depart="102.77" from="333557072#1" to="1339697074" type="passenger"/>
    <trip id="127" depart="103.59" from="315658897#0" to="-351672100#1" type="passenger"/>
    <trip id="128" depart="104.41" from="318747848#6" to="315658896#1" type="passenger"/>
    <trip id="129" depart="105.22" from="770860549" to="315658896#2" type="passenger"/>
    <trip id="130" depart="106.04" from="-318747848#2" to="315658896#1" type="passenger"/>
    <trip id="131" depart="106.85" from="773060732#2" to="-315658897#0" type="passenger"/>
    <trip id="132" depart="107.67" from="-651817398#4" to="315658884#3" type="passenger"/>
    <trip id="133" depart="108.48" from="712288152#1" to="-384030401#1" type="passenger"/>
    <trip id="134" depart="109.30" from="315658897#0" to="315658884#2" type="passenger"/>
    <trip id="135" depart="110.12" from="-315658897#2" to="-315658896#2" type="passenger"/>
    <trip id="136" depart="110.93" from="-651817398#0" to="318747848#3" type="passenger"/>
    <trip id="137" depart="111.75" from="773060732#4" to="619147739#3" type="passenger"/>
    <trip id="138" depart="112.56" from="-318747848#7" to="315658884#3" type="passenger"/>
    <trip id="139" depart="113.38" from="-770860565" to="-37403486#2" type="passenger"/>
    <trip id="140" depart="114.19" from="1339697075#1" to="1339697075#6" type="passenger"/>
    <trip id="141" depart="115.01" from="333557072#1" to="-318747848#5" type="passenger"/>
    <trip id="142" depart="115.83" from="-712288152#1" to="1339697075#1" type="passenger"/>
    <trip id="143" depart="116.64" from="78628770#1" to="-315658897#1" type="passenger"/>
    <trip id="144" depart="117.46" from="773060732#4" to="315658884#2" type="passenger"/>
    <trip id="145" depart="118.27" from="-318747848#5" to="712288152#2" type="passenger"/>
    <trip id="146" depart="119.09" from="464763971" to="1339697074" type="passenger"/>
    <trip id="147" depart="119.90" from="619147739#1" to="315658884#3" type="passenger"/>
    <trip id="148" depart="120.72" from="318747848#4" to="-315658897#1" type="passenger"/>
    <trip id="149" depart="121.54" from="78628775#1" to="1339697076#1" type="passenger"/>
    <trip id="150" depart="122.35" from="315658884#3" to="315658896#1" type="passenger"/>
    <trip id="151" depart="123.17" from="-770860548#1" to="379943753#1" type="passenger"/>
    <trip id="152" depart="123.98" from="-770860549" to="-315658897#0" type="passenger"/>
    <trip id="153" depart="124.80" from="-318747848#3" to="712288152#1" type="passenger"/>
    <trip id="154" depart="125.61" from="-318747848#3" to="-351672100#1" type="passenger"/>
    <trip id="155" depart="126.43" from="78628775#0" to="318747848#3" type="passenger"/>
    <trip id="156" depart="127.24" from="333557072#0" to="-37403486#2" type="passenger"/>
    <trip id="157" depart="128.06" from="78628770#1" to="-315658897#0" type="passenger"/>
    <trip id="158" depart="128.88" from="619147739#5" to="619147739#3" type="passenger"/>
    <trip id="159" depart="129.69" from="773060732#2" to="773060732#2" type="passenger"/>
    <trip id="160" depart="130.51" from="1339655667#1" to="-37403486#1" type="passenger"/>
    <trip id="161" depart="131.32" from="773060732#1" to="1339697076#0" type="passenger"/>
    <trip id="162" depart="132.14" from="318747848#6" to="778973690" type="passenger"/>
    <trip id="163" depart="132.95" from="318747848#3" to="1339697075#1" type="passenger"/>
    <trip id="164" depart="133.77" from="-651817398#4" to="315658897#2" type="passenger"/>
    <trip id="165" depart="134.59" from="712288152#0" to="-315658897#0" type="passenger"/>
    <trip id="166" depart="135.40" from="318747848#5" to="-318747848#4" type="passenger"/>
    <trip id="167" depart="136.22" from="315658884#1" to="318747848#6" type="passenger"/>
    <trip id="168" depart="137.03" from="315658896#2" to="712288152#1" type="passenger"/>
    <trip id="169" depart="137.85" from="-651817398#5" to="-315658896#2" type="passenger"/>
    <trip id="170" depart="138.66" from="333557072#2" to="770860548#2" type="passenger"/>
    <trip id="171" depart="139.48" from="315658884#1" to="379943753#1" type="passenger"/>
    <trip id="172" depart="140.30" from="315658884#3" to="315658884#1" type="passenger"/>
    <trip id="173" depart="141.11" from="-770860548#1" to="315658896#2" type="passenger"/>
    <trip id="174" depart="141.93" from="-315658896#2" to="315658896#3" type="passenger"/>
    <trip id="175" depart="142.74" from="-770860548#2" to="318747848#2" type="passenger"/>
    <trip id="176" depart="143.56" from="821457682#0" to="315658896#3" type="passenger"/>
    <trip id="177" depart="144.37" from="770860549" to="379943753#0" type="passenger"/>
    <trip id="178" depart="145.19" from="-770860549" to="315658896#2" type="passenger"/>
    <trip id="179" depart="146.01" from="712288152#2" to="1339655667#0" type="passenger"/>
    <trip id="180" depart="146.82" from="318747848#6" to="428544127" type="passenger"/>
    <trip id="181" depart="147.64" from="770860565" to="-464763971" type="passenger"/>
    <trip id="182" depart="148.45" from="-651817398#3" to="-351672100#1" type="passenger"/>
    <trip id="183" depart="149.27" from="821457682#0" to="777881144#1" type="passenger"/>
    <trip id="184" depart="150.08" from="318747848#5" to="619147739#6" type="passenger"/>
    <trip id="185" depart="150.90" from="619147739#3" to="315658896#2" type="passenger"/>
    <trip id="186" depart="151.72" from="-318747848#2" to="-318747848#7" type="passenger"/>
    <trip id="187" depart="152.53" from="-315658884#1" to="384030395" type="passenger"/>
    <trip id="188" depart="153.35" from="770860548#0" to="770860549" type="passenger"/>
    <trip id="189" depart="154.16" from="-315658884#2" to="-464763971" type="passenger"/>
    <trip id="190" depart="154.98" from="-315658897#0" to="315658897#1" type="passenger"/>
    <trip id="191" depart="155.79" from="-315658896#2" to="1339655667#0" type="passenger"/>
    <trip id="192" depart="156.61" from="773060732#0" to="619147739#5" type="passenger"/>
    <trip id="193" depart="157.42" from="-651817398#3" to="-464763971" type="passenger"/>
    <trip id="194" depart="158.24" from="318747848#3" to="-318747848#5" type="passenger"/>
    <trip id="195" depart="159.06" from="-712288152#2" to="-351672100#4" type="passenger"/>
    <trip id="196" depart="159.87" from="770860549" to="315658897#0" type="passenger"/>
    <trip id="197" depart="160.69" from="-770860565" to="78628770#1" type="passenger"/>
    <trip id="198" depart="161.50" from="318747848#7" to="315658897#2" type="passenger"/>
    <trip id="199" depart="162.32" from="-315658896#3" to="955312947" type="passenger"/>
    <trip id="200" depart="163.13" from="-315658884#1" to="379943753#0" type="passenger"/>
    <trip id="201" depart="163.95" from="315658897#1" to="-318747848#3" type="passenger"/>
    <trip id="202" depart="164.77" from="619147739#1" to="-712288152#1" type="passenger"/>
    <trip id="203" depart="165.58" from="619147739#0" to="-318747848#3" type="passenger"/>
    <trip id="204" depart="166.40" from="315658884#1" to="1339655667#1" type="passenger"/>
    <trip id="205" depart="167.21" from="-770860549" to="-318747848#7" type="passenger"/>
    <trip id="206" depart="168.03" from="-315658884#2" to="778973690" type="passenger"/>
    <trip id="207" depart="168.84" from="78628775#1" to="777881147#1" type="passenger"/>
    <trip id="208" depart="169.66" from="-318747848#7" to="-37403486#1" type="passenger"/>
    <trip id="209" depart="170.48" from="-37403486#2" to="-351672100#1" type="passenger"/>
    <trip id="210" depart="171.29" from="-712288152#0" to="1339697075#4" type="passenger"/>
    <trip id="211" depart="172.11" from="318747848#4" to="315658884#3" type="passenger"/>
    <trip id="212" depart="172.92" from="-315658896#3" to="-315658884#4" type="passenger"/>
    <trip id="213" depart="173.74" from="-318747848#3" to="1339697075#5" type="passenger"/>
    <trip id="214" depart="174.55" from="318747848#2" to="315658896#3" type="passenger"/>
    <trip id="215" depart="175.37" from="712288152#0" to="1339697075#5" type="passenger"/>
    <trip id="216" depart="176.19" from="770860549" to="619147739#4" type="passenger"/>
    <trip id="217" depart="177.00" from="-770860549" to="1339697076#1" type="passenger"/>
    <trip id="218" depart="177.82" from="773060732#0" to="-351672100#2" type="passenger"/>
    <trip id="219" depart="178.63" from="-315658884#4" to="1339655667#1" type="passenger"/>
    <trip id="220" depart="179.45" from="-770860549" to="318747848#4" type="passenger"/>
    <trip id="221" depart="180.26" from="-315658897#0" to="1339655667#0" type="passenger"/>
    <trip id="222" depart="181.08" from="1339655667#0" to="-384030401#0" type="passenger"/>
    <trip id="223" depart="181.90" from="-770860549" to="-770860548#0" type="passenger"/>
    <trip id="224" depart="182.71" from="315658884#3" to="1339697075#6" type="passenger"/>
    <trip id="225" depart="183.53" from="-651817398#2" to="-384030401#1" type="passenger"/>
    <trip id="226" depart="184.34" from="315658896#1" to="-318747848#4" type="passenger"/>
    <trip id="227" depart="185.16" from="773060732#2" to="-315658884#3" type="passenger"/>
    <trip id="228" depart="185.97" from="712288152#1" to="-315658897#0" type="passenger"/>
    <trip id="229" depart="186.79" from="333557072#1" to="770860565" type="passenger"/>
    <trip id="230" depart="187.60" from="-315658884#3" to="1339697075#5" type="passenger"/>
    <trip id="231" depart="188.42" from="-315658896#2" to="-464763971" type="passenger"/>
    <trip id="232" depart="189.24" from="-315658884#1" to="-318747848#3" type="passenger"/>
    <trip id="233" depart="190.05" from="315658896#2" to="712288152#1" type="passenger"/>
    <trip id="234" depart="190.87" from="318747848#2" to="379943753#1" type="passenger"/>
    <trip id="235" depart="191.68" from="379943753#0" to="619147739#3" type="passenger"/>
    <trip id="236" depart="192.50" from="315658896#2" to="-1339655670" type="passenger"/>
    <trip id="237" depart="193.31" from="-315658896#3" to="-464763971" type="passenger"/>
    <trip id="238" depart="194.13" from="78628775#0" to="315658896#1" type="passenger"/>
    <trip id="239" depart="194.95" from="-315658897#0" to="1339697075#4" type="passenger"/>
    <trip id="240" depart="195.76" from="384030401#0" to="-351672100#1" type="passenger"/>
    <trip id="241" depart="196.58" from="-770860549" to="-351672100#1" type="passenger"/>
    <trip id="242" depart="197.39" from="-315658884#1" to="1339697074" type="passenger"/>
    <trip id="243" depart="198.21" from="318747848#2" to="619147739#3" type="passenger"/>
    <trip id="244" depart="199.02" from="-712288152#2" to="1339697075#6" type="passenger"/>
    <trip id="245" depart="199.84" from="619147739#5" to="777881144#1" type="passenger"/>
    <trip id="246" depart="200.66" from="712288152#2" to="-464763971" type="passenger"/>
    <trip id="247" depart="201.47" from="379943755#1" to="-315658884#3" type="passenger"/>
    <trip id="248" depart="202.29" from="619147739#5" to="428544127" type="passenger"/>
    <trip id="249" depart="203.10" from="315658897#1" to="379943753#1" type="passenger"/>
    <trip id="250" depart="203.92" from="318747848#5" to="315658884#3" type="passenger"/>
    <trip id="251" depart="204.73" from="379943753#0" to="-315658884#4" type="passenger"/>
    <trip id="252" depart="205.55" from="318747848#4" to="1339697075#5" type="passenger"/>
    <trip id="253" depart="206.37" from="315658896#2" to="315658896#3" type="passenger"/>
    <trip id="254" depart="207.18" from="-315658897#0" to="318747848#5" type="passenger"/>
    <trip id="255" depart="208.00" from="318747848#4" to="-351672100#0" type="passenger"/>
    <trip id="256" depart="208.81" from="-651817398#3" to="-351672100#2" type="passenger"/>
    <trip id="257" depart="209.63" from="770860565" to="-315658896#1" type="passenger"/>
    <trip id="258" depart="210.44" from="773060732#4" to="619147739#3" type="passenger"/>
    <trip id="259" depart="211.26" from="333557072#2" to="428544127" type="passenger"/>
    <trip id="260" depart="212.07" from="-318747848#7" to="-315658897#0" type="passenger"/>
    <trip id="261" depart="212.89" from="-315658897#2" to="318747848#3" type="passenger"/>
    <trip id="262" depart="213.71" from="-651817398#5" to="619147739#1" type="passenger"/>
    <trip id="263" depart="214.52" from="770860548#0" to="318747848#2" type="passenger"/>
    <trip id="264" depart="215.34" from="-651817398#1" to="-318747848#5" type="passenger"/>
    <trip id="265" depart="216.15" from="-651817398#1" to="-318747848#5" type="passenger"/>
    <trip id="266" depart="216.97" from="619147739#1" to="1339655667#0" type="passenger"/>
    <trip id="267" depart="217.78" from="773060732#2" to="619147739#5" type="passenger"/>
    <trip id="268" depart="218.60" from="-651817398#5" to="1339655667#1" type="passenger"/>
    <trip id="269" depart="219.42" from="773060732#0" to="318747848#3" type="passenger"/>
    <trip id="270" depart="220.23" from="379943753#0" to="315658884#3" type="passenger"/>
    <trip id="271" depart="221.05" from="770860548#1" to="315658884#4" type="passenger"/>
    <trip id="272" depart="221.86" from="-651817398#5" to="-37403486#2" type="passenger"/>
    <trip id="273" depart="222.68" from="37403486#1" to="-464763971" type="passenger"/>
    <trip id="274" depart="223.49" from="-315658884#3" to="315658896#1" type="passenger"/>
    <trip id="275" depart="224.31" from="821457682#1" to="-318747848#5" type="passenger"/>
    <trip id="276" depart="225.13" from="-955312947" to="619147739#3" type="passenger"/>
    <trip id="277" depart="225.94" from="-315658884#1" to="1339697075#1" type="passenger"/>
    <trip id="278" depart="226.76" from="770860548#1" to="712288152#0" type="passenger"/>
    <trip id="279" depart="227.57" from="-651817398#5" to="379943755#1" type="passenger"/>
    <trip id="280" depart="228.39" from="318747848#7" to="-315658896#1" type="passenger"/>
    <trip id="281" depart="229.20" from="770860565" to="-318747848#3" type="passenger"/>
    <trip id="282" depart="230.02" from="351672100#4" to="-464763971" type="passenger"/>
    <trip id="283" depart="230.84" from="-770860565" to="1339697075#6" type="passenger"/>
    <trip id="284" depart="231.65" from="773060732#1" to="619147739#6" type="passenger"/>
    <trip id="285" depart="232.47" from="619147739#3" to="-384030401#1" type="passenger"/>
    <trip id="286" depart="233.28" from="-651817398#4" to="-315658897#0" type="passenger"/>
    <trip id="287" depart="234.10" from="773060732#3" to="-1339655670" type="passenger"/>
    <trip id="288" depart="234.91" from="318747848#7" to="318747848#5" type="passenger"/>
    <trip id="289" depart="235.73" from="-318747848#6" to="777881145" type="passenger"/>
    <trip id="290" depart="236.55" from="333557072#0" to="955312947" type="passenger"/>
    <trip id="291" depart="237.36" from="1339697075#5" to="1339697074" type="passenger"/>
    <trip id="292" depart="238.18" from="773060732#2" to="379943753#0" type="passenger"/>
    <trip id="293" depart="238.99" from="78628770#1" to="379943753#0" type="passenger"/>
    <trip id="294" depart="239.81" from="333557072#2" to="1339697075#2" type="passenger"/>
    <trip id="295" depart="240.62" from="78628775#0" to="821457682#0" type="passenger"/>
    <trip id="296" depart="241.44" from="318747848#5" to="-318747848#7" type="passenger"/>
    <trip id="297" depart="242.25" from="712288152#0" to="384030395" type="passenger"/>
    <trip id="298" depart="243.07" from="-315658884#4" to="315658896#2" type="passenger"/>
    <trip id="299" depart="243.89" from="-37403486#1" to="-351672100#1" type="passenger"/>
    <trip id="300" depart="244.70" from="318747848#5" to="-351672100#2" type="passenger"/>
    <trip id="301" depart="245.52" from="-315658897#2" to="778973690" type="passenger"/>
    <trip id="302" depart="246.33" from="-315658884#3" to="619147739#3" type="passenger"/>
    <trip id="303" depart="247.15" from="318747848#6" to="428544127" type="passenger"/>
    <trip id="304" depart="247.96" from="-318747848#3" to="-351672100#4" type="passenger"/>
    <trip id="305" depart="248.78" from="-955312947" to="712288152#1" type="passenger"/>
    <trip id="306" depart="249.60" from="-712288152#1" to="-384030401#1" type="passenger"/>
    <trip id="307" depart="250.41" from="-318747848#3" to="1339697075#4" type="passenger"/>
    <trip id="308" depart="251.23" from="-315658884#4" to="-37403486#1" type="passenger"/>
    <trip id="309" depart="252.04" from="-315658897#1" to="-351672100#1" type="passenger"/>
    <trip id="310" depart="252.86" from="-315658884#1" to="712288152#2" type="passenger"/>
    <trip id="311" depart="253.67" from="773060732#4" to="778973690" type="passenger"/>
    <trip id="312" depart="254.49" from="-770860548#2" to="379943755#1" type="passenger"/>
    <trip id="313" depart="255.31" from="78628770#1" to="315658896#1" type="passenger"/>
    <trip id="314" depart="256.12" from="-315658884#4" to="-315658884#3" type="passenger"/>
    <trip id="315" depart="256.94" from="78628775#1" to="-318747848#6" type="passenger"/>
    <trip id="316" depart="257.75" from="315658884#3" to="712288152#1" type="passenger"/>
    <trip id="317" depart="258.57" from="619147739#2" to="1339655667#1" type="passenger"/>
    <trip id="318" depart="259.38" from="-770860548#2" to="778973690" type="passenger"/>
    <trip id="319" depart="260.20" from="-315658897#0" to="-315658884#4" type="passenger"/>
    <trip id="320" depart="261.02" from="-37403486#2" to="778973690" type="passenger"/>
    <trip id="321" depart="261.83" from="-770860548#1" to="619147739#3" type="passenger"/>
    <trip id="322" depart="262.65" from="78628775#0" to="778973690" type="passenger"/>
    <trip id="323" depart="263.46" from="351672100#2" to="1339697075#4" type="passenger"/>