<?xml version="1.0" encoding="UTF-8"?>

<!-- generated on 2026-04-17 02:50:37.216545 by Eclipse SUMO randomTrips.py v1.26.0
<configuration>
    <net-file value="/Users/junlee/Desktop/2026-1/js/result/tradeoff_pet_top12_seed12_60min_20260417_024953/sumo_nets/cw_6213/network.net.xml"/>
    <output-trip-file value="/Users/junlee/Desktop/2026-1/js/result/tradeoff_pet_top12_seed12_60min_20260417_024953/sumo_nets/cw_6213/routes_seed53.trips.xml"/>
    <route-file value="/Users/junlee/Desktop/2026-1/js/result/tradeoff_pet_top12_seed12_60min_20260417_024953/sumo_nets/cw_6213/routes_seed53.rou.xml"/>
    <vehicle-class value="passenger"/>
    <seed value="53"/>
    <period value="0.8446671300713006"/>
</configuration>
-->

<routes xmlns:xsi="http://www.w3.org/2001/XMLSchema-instance" xsi:noNamespaceSchemaLocation="http://sumo.dlr.de/xsd/routes_file.xsd">
    <vType id="passenger" vClass="passenger"/>
    <trip id="0" depart="0.00" from="619147739#3" to="619147739#3" type="passenger"/>
    <trip id="1" depart="0.84" from="619147739#4" to="-37403486#1" type="passenger"/>
    <trip id="2" depart="1.69" from="-651817398#2" to="-351672100#0" type="passenger"/>
    <trip id="3" depart="2.53" from="-770860565" to="379943753#0" type="passenger"/>
    <trip id="4" depart="3.38" from="78628775#2" to="-315658896#2" type="passenger"/>
    <trip id="5" depart="4.22" from="315658884#2" to="712288152#1" type="passenger"/>
    <trip id="6" depart="5.07" from="-651817398#2" to="1339655667#1" type="passenger"/>
    <trip id="7" depart="5.91" from="-315658896#2" to="315658896#2" type="passenger"/>
    <trip id="8" depart="6.76" from="-651817398#3" to="1339697075#4" type="passenger"/>
    <trip id="9" depart="7.60" from="315658896#1" to="318747848#3" type="passenger"/>
    <trip id="10" depart="8.45" from="619147739#4" to="1339697076#1" type="passenger"/>
    <trip id="11" depart="9.29" from="-651817398#2" to="315658884#4" type="passenger"/>
    <trip id="12" depart="10.14" from="333557072#0" to="-351672100#0" type="passenger"/>
    <trip id="13" depart="10.98" from="-651817398#4" to="318747848#7" type="passenger"/>
    <trip id="14" depart="11.83" from="619147739#2" to="318747848#4" type="passenger"/>
    <trip id="15" depart="12.67" from="777881144#0" to="379943755#1" type="passenger"/>
    <trip id="16" depart="13.51" from="318747848#5" to="315658884#1" type="passenger"/>
    <trip id="17" depart="14.36" from="770860548#1" to="619147739#6" type="passenger"/>
    <trip id="18" depart="15.20" from="315658896#2" to="379943753#1" type="passenger"/>
    <trip id="19" depart="16.05" from="318747848#7" to="-315658884#2" type="passenger"/>
    <trip id="20" depart="16.89" from="-955312947" to="-318747848#2" type="passenger"/>
    <trip id="21" depart="17.74" from="821457682#0" to="318747848#2" type="passenger"/>
    <trip id="22" depart="18.58" from="318747848#7" to="712288152#1" type="passenger"/>
    <trip id="23" depart="19.43" from="379943753#1" to="379943753#1" type="passenger"/>
    <trip id="24" depart="20.27" from="821457682#0" to="1339697076#0" type="passenger"/>
    <trip id="25" depart="21.12" from="-318747848#7" to="318747848#5" type="passenger"/>
    <trip id="26" depart="21.96" from="-770860549" to="315658896#2" type="passenger"/>
    <trip id="27" depart="22.81" from="379943755#1" to="619147739#4" type="passenger"/>
    <trip id="28" depart="23.65" from="712288152#0" to="619147739#6" type="passenger"/>
    <trip id="29" depart="24.50" from="315658884#2" to="315658884#1" type="passenger"/>
    <trip id="30" depart="25.34" from="333557072#2" to="333557072#5" type="passenger"/>
    <trip id="31" depart="26.18" from="315658896#1" to="318747848#5" type="passenger"/>
    <trip id="32" depart="27.03" from="315658896#2" to="-351672100#0" type="passenger"/>
    <trip id="33" depart="27.87" from="770860565" to="1339697075#6" type="passenger"/>
    <trip id="34" depart="28.72" from="821457682#0" to="-315658897#0" type="passenger"/>
    <trip id="35" depart="29.56" from="318747848#5" to="1339697075#1" type="passenger"/>
    <trip id="36" depart="30.41" from="379943753#1" to="-315658897#1" type="passenger"/>
    <trip id="37" depart="31.25" from="315658884#4" to="712288152#2" type="passenger"/>
    <trip id="38" depart="32.10" from="-770860548#2" to="-37403486#2" type="passenger"/>
    <trip id="39" depart="32.94" from="-315658884#2" to="-351672100#0" type="passenger"/>
    <trip id="40" depart="33.79" from="712288152#0" to="712288152#2" type="passenger"/>
    <trip id="41" depart="34.63" from="-651817398#5" to="-351672100#2" type="passenger"/>
    <trip id="42" depart="35.48" from="315658896#2" to="778973690" type="passenger"/>
    <trip id="43" depart="36.32" from="318747848#2" to="777881145" type="passenger"/>
    <trip id="44" depart="37.17" from="-318747848#5" to="1339697075#2" type="passenger"/>
    <trip id="45" depart="38.01" from="315658896#2" to="384030395" type="passenger"/>
    <trip id="46" depart="38.85" from="-315658897#1" to="1339697075#1" type="passenger"/>
    <trip id="47" depart="39.70" from="78628775#2" to="78628775#2" type="passenger"/>
    <trip id="48" depart="40.54" from="315658897#0" to="-37403486#2" type="passenger"/>
    <trip id="49" depart="41.39" from="-955312947" to="1339697075#6" type="passenger"/>
    <trip id="50" depart="42.23" from="773060732#2" to="777881144#0" type="passenger"/>
    <trip id="51" depart="43.08" from="-318747848#7" to="1339655667#0" type="passenger"/>
    <trip id="52" depart="43.92" from="-318747848#7" to="-315658896#1" type="passenger"/>
    <trip id="53" depart="44.77" from="777881144#0" to="1339697075#2" type="passenger"/>
    <trip id="54" depart="45.61" from="-770860548#2" to="-318747848#6" type="passenger"/>
    <trip id="55" depart="46.46" from="-651817398#5" to="-351672100#4" type="passenger"/>
    <trip id="56" depart="47.30" from="-315658896#3" to="-351672100#0" type="passenger"/>
    <trip id="57" depart="48.15" from="78628775#1" to="-315658884#3" type="passenger"/>
    <trip id="58" depart="48.99" from="619147739#3" to="-351672100#2" type="passenger"/>
    <trip id="59" depart="49.84" from="-318747848#3" to="379943755#1" type="passenger"/>
    <trip id="60" depart="50.68" from="773060732#2" to="379943755#1" type="passenger"/>
    <trip id="61" depart="51.52" from="773060732#0" to="379943755#1" type="passenger"/>
    <trip id="62" depart="52.37" from="1339697075#5" to="1339697075#6" type="passenger"/>
    <trip id="63" depart="53.21" from="770860548#0" to="-315658896#2" type="passenger"/>
    <trip id="64" depart="54.06" from="315658896#1" to="-318747848#5" type="passenger"/>
    <trip id="65" depart="54.90" from="770860548#0" to="318747848#5" type="passenger"/>
    <trip id="66" depart="55.75" from="712288152#2" to="1339697075#4" type="passenger"/>
    <trip id="67" depart="56.59" from="315658884#1" to="318747848#5" type="passenger"/>
    <trip id="68" depart="57.44" from="-315658896#3" to="315658897#1" type="passenger"/>
    <trip id="69" depart="58.28" from="-318747848#4" to="315658897#1" type="passenger"/>
    <trip id="70" depart="59.13" from="318747848#5" to="-351672100#4" type="passenger"/>
    <trip id="71" depart="59.97" from="315658897#1" to="1339697075#4" type="passenger"/>
    <trip id="72" depart="60.82" from="619147739#0" to="1339655667#1" type="passenger"/>
    <trip id="73" depart="61.66" from="333557072#2" to="315658896#1" type="passenger"/>
    <trip id="74" depart="62.51" from="315658897#0" to="315658896#1" type="passenger"/>
    <trip id="75" depart="63.35" from="773060732#3" to="318747848#3" type="passenger"/>
    <trip id="76" depart="64.19" from="712288152#1" to="315658896#2" type="passenger"/>
    <trip id="77" depart="65.04" from="651817398#0" to="651817398#4" type="passenger"/>
    <trip id="78" depart="65.88" from="-315658884#2" to="1339655667#1" type="passenger"/>
    <trip id="79" depart="66.73" from="-315658896#2" to="428544127" type="passenger"/>
    <trip id="80" depart="67.57" from="-318747848#2" to="318747848#3" type="passenger"/>
    <trip id="81" depart="68.42" from="-318747848#6" to="1339697075#6" type="passenger"/>
    <trip id="82" depart="69.26" from="821457682#1" to="1339655667#0" type="passenger"/>
    <trip id="83" depart="70.11" from="318747848#6" to="-318747848#7" type="passenger"/>
    <trip id="84" depart="70.95" from="773060732#3" to="777881144#1" type="passenger"/>
    <trip id="85" depart="71.80" from="1339655670" to="37403486#1" type="passenger"/>
    <trip id="86" depart="72.64" from="773060732#4" to="315658897#2" type="passenger"/>
    <trip id="87" depart="73.49" from="-955312947" to="1339655667#0" type="passenger"/>
    <trip id="88" depart="74.33" from="712288152#1" to="315658884#3" type="passenger"/>
    <trip id="89" depart="75.18" from="-315658897#0" to="-351672100#4" type="passenger"/>
    <trip id="90" depart="76.02" from="333557072#0" to="-770860548#2" type="passenger"/>
    <trip id="91" depart="76.86" from="712288152#1" to="1339697074" type="passenger"/>
    <trip id="92" depart="77.71" from="712288152#0" to="-315658884#1" type="passenger"/>
    <trip id="93" depart="78.55" from="-318747848#5" to="-315658884#3" type="passenger"/>
    <trip id="94" depart="79.40" from="-712288152#0" to="-37403486#2" type="passenger"/>
    <trip id="95" depart="80.24" from="619147739#0" to="318747848#5" type="passenger"/>
    <trip id="96" depart="81.09" from="351672100#0" to="778973690" type="passenger"/>
    <trip id="97" depart="81.93" from="821457682#1" to="-318747848#2" type="passenger"/>
    <trip id="98" depart="82.78" from="619147739#1" to="1339697074" type="passenger"/>
    <trip id="99" depart="83.62" from="318747848#2" to="-315658884#2" type="passenger"/>
    <trip id="100" depart="84.47" from="-315658897#1" to="712288152#2" type="passenger"/>
    <trip id="101" depart="85.31" from="78628775#1" to="-351672100#4" type="passenger"/>
    <trip id="102" depart="86.16" from="315658896#2" to="619147739#3" type="passenger"/>
    <trip id="103" depart="87.00" from="773060732#2" to="428544127" type="passenger"/>
    <trip id="104" depart="87.85" from="-315658884#1" to="318747848#4" type="passenger"/>
    <trip id="105" depart="88.69" from="770860565" to="78628770#1" type="passenger"/>
    <trip id="106" depart="89.53" from="315658896#2" to="-315658884#2" type="passenger"/>
    <trip id="107" depart="90.38" from="78628775#1" to="1339697075#4" type="passenger"/>
    <trip id="108" depart="91.22" from="-315658897#1" to="778973690" type="passenger"/>
    <trip id="109" depart="92.07" from="619147739#3" to="-37403486#2" type="passenger"/>
    <trip id="110" depart="92.91" from="619147739#5" to="1339697075#3" type="passenger"/>
    <trip id="111" depart="93.76" from="379943753#0" to="-315658897#1" type="passenger"/>
    <trip id="112" depart="94.60" from="-315658897#2" to="318747848#5" type="passenger"/>
    <trip id="113" depart="95.45" from="-318747848#5" to="-315658884#4" type="passenger"/>
    <trip id="114" depart="96.29" from="773060732#3" to="379943753#1" type="passenger"/>
    <trip id="115" depart="97.14" from="712288152#1" to="1339655667#1" type="passenger"/>
    <trip id="116" depart="97.98" from="318747848#2" to="315658896#3" type="passenger"/>
    <trip id="117" depart="98.83" from="-318747848#6" to="-384030401#1" type="passenger"/>
    <trip id="118" depart="99.67" from="379943753#0" to="379943753#0" type="passenger"/>
    <trip id="119" depart="100.52" from="619147739#1" to="-315658884#3" type="passenger"/>
    <trip id="120" depart="101.36" from="651817398#1" to="651817398#3" type="passenger"/>
    <trip id="121" depart="102.20" from="619147739#4" to="1339655667#0" type="passenger"/>
    <trip id="122" depart="103.05" from="773060732#3" to="1339655667#1" type="passenger"/>
    <trip id="123" depart="103.89" from="-770860565" to="-318747848#7" type="passenger"/>
    <trip id="124" depart="104.74" from="315658884#4" to="778973690" type="passenger"/>
    <trip id="125" depart="105.58" from="-770860548#2" to="318747848#2" type="passenger"/>
    <trip id="126" depart="106.43" from="-318747848#6" to="315658897#2" type="passenger"/>
    <trip id="127" depart="107.27" from="315658884#2" to="-318747848#3" type="passenger"/>
    <trip id="128" depart="108.12" from="78628770#1" to="712288152#1" type="passenger"/>
    <trip id="129" depart="108.96" from="773060732#3" to="773060732#4" type="passenger"/>
    <trip id="130" depart="109.81" from="379943755#1" to="1339697076#1" type="passenger"/>
    <trip id="131" depart="110.65" from="78628775#1" to="-351672100#0" type="passenger"/>
    <trip id="132" depart="111.50" from="770860549" to="777881145" type="passenger"/>
    <trip id="133" depart="112.34" from="78628775#1" to="315658896#1" type="passenger"/>
    <trip id="134" depart="113.19" from="333557072#2" to="-318747848#5" type="passenger"/>
    <trip id="135" depart="114.03" from="712288152#0" to="318747848#3" type="passenger"/>
    <trip id="136" depart="114.87" from="318747848#2" to="1339697075#6" type="passenger"/>
    <trip id="137" depart="115.72" from="-318747848#3" to="1339697075#6" type="passenger"/>
    <trip id="138" depart="116.56" from="770860548#1" to="1339697075#1" type="passenger"/>
    <trip id="139" depart="117.41" from="318747848#6" to="315658884#1" type="passenger"/>
    <trip id="140" depart="118.25" from="315658884#4" to="1339697076#1" type="passenger"/>
    <trip id="141" depart="119.10" from="619147739#2" to="-315658884#2" type="passenger"/>
    <trip id="142" depart="119.94" from="770860548#0" to="333557072#3" type="passenger"/>
    <trip id="143" depart="120.79" from="318747848#3" to="379943755#1" type="passenger"/>
    <trip id="144" depart="121.63" from="315658896#2" to="315658884#3" type="passenger"/>
    <trip id="145" depart="122.48" from="-318747848#3" to="-315658896#1" type="passenger"/>
    <trip id="146" depart="123.32" from="379943755#1" to="1339697075#1" type="passenger"/>
    <trip id="147" depart="124.17" from="318747848#2" to="315658896#2" type="passenger"/>
    <trip id="148" depart="125.01" from="-315658897#2" to="318747848#3" type="passenger"/>
    <trip id="149" depart="125.86" from="315658897#0" to="-351672100#2" type="passenger"/>
    <trip id="150" depart="126.70" from="-770860565" to="318747848#6" type="passenger"/>
    <trip id="151" depart="127.54" from="-318747848#2" to="619147739#5" type="passenger"/>
    <trip id="152" depart="128.39" from="-651817398#3" to="-315658897#0" type="passenger"/>
    <trip id="153" depart="129.23" from="78628775#0" to="619147739#3" type="passenger"/>
    <trip id="154" depart="130.08" from="318747848#2" to="-318747848#5" type="passenger"/>
    <trip id="155" depart="130.92" from="619147739#5" to="-318747848#4" type="passenger"/>
    <trip id="156" depart="131.77" from="-770860565" to="315658884#4" type="passenger"/>
    <trip id="157" depart="132.61" from="318747848#5" to="-315658897#0" type="passenger"/>
    <trip id="158" depart="133.46" from="773060732#2" to="1339697075#3" type="passenger"/>
    <trip id="159" depart="134.30" from="333557072#3" to="315658884#3" type="passenger"/>
    <trip id="160" depart="135.15" from="-315658897#0" to="-351672100#4" type="passenger"/>
    <trip id="161" depart="135.99" from="379943753#0" to="315658897#2" type="passenger"/>
    <trip id="162" depart="136.84" from="773060732#4" to="1339697075#5" type="passenger"/>
    <trip id="163" depart="137.68" from="-770860548#2" to="778973690" type="passenger"/>
    <trip id="164" depart="138.53" from="-318747848#5" to="-318747848#2" type="passenger"/>
    <trip id="165" depart="139.37" from="318747848#5" to="712288152#1" type="passenger"/>
    <trip id="166" depart="140.21" from="379943755#1" to="-351672100#1" type="passenger"/>
    <trip id="167" depart="141.06" from="619147739#0" to="651817398#0" type="passenger"/>
    <trip id="168" depart="141.90" from="773060732#4" to="-318747848#4" type="passenger"/>
    <trip id="169" depart="142.75" from="-318747848#5" to="778973690" type="passenger"/>
    <trip id="170" depart="143.59" from="-318747848#6" to="777881147#1" type="passenger"/>
    <trip id="171" depart="144.44" from="318747848#6" to="428544127" type="passenger"/>
    <trip id="172" depart="145.28" from="78628775#1" to="1339697075#5" type="passenger"/>
    <trip id="173" depart="146.13" from="-651817398#3" to="-318747848#6" type="passenger"/>
    <trip id="174" depart="146.97" from="712288152#2" to="-315658897#1" type="passenger"/>
    <trip id="175" depart="147.82" from="712288152#1" to="1339697075#1" type="passenger"/>
    <trip id="176" depart="148.66" from="315658896#1" to="777881147#1" type="passenger"/>
    <trip id="177" depart="149.51" from="773060732#4" to="-315658897#0" type="passenger"/>
    <trip id="178" depart="150.35" from="-315658897#0" to="712288152#2" type="passenger"/>
    <trip id="179" depart="151.20" from="315658896#2" to="1339697075#6" type="passenger"/>
    <trip id="180" depart="152.04" from="379943753#0" to="318747848#6" type="passenger"/>
    <trip id="181" depart="152.88" from="619147739#4" to="318747848#7" type="passenger"/>
    <trip id="182" depart="153.73" from="821457682#1" to="-315658897#1" type="passenger"/>
    <trip id="183" depart="154.57" from="78628775#0" to="770860565" type="passenger"/>
    <trip id="184" depart="155.42" from="315658897#1" to="315658897#1" type="passenger"/>
    <trip id="185" depart="156.26" from="1339697076#0" to="-464763971" type="passenger"/>
    <trip id="186" depart="157.11" from="379943753#0" to="-318747848#4" type="passenger"/>
    <trip id="187" depart="157.95" from="773060732#2" to="315658884#1" type="passenger"/>
    <trip id="188" depart="158.80" from="-315658884#1" to="-315658896#1" type="passenger"/>
    <trip id="189" depart="159.64" from="315658896#1" to="619147739#3" type="passenger"/>
    <trip id="190" depart="160.49" from="333557072#2" to="712288152#2" type="passenger"/>
    <trip id="191" depart="161.33" from="315658884#1" to="1339697075#4" type="passenger"/>
    <trip id="192" depart="162.18" from="315658884#2" to="1339697075#6" type="passenger"/>
    <trip id="193" depart="163.02" from="-315658897#2" to="1339697076#1" type="passenger"/>
    <trip id="194" depart="163.87" from="318747848#3" to="-318747848#4" type="passenger"/>
    <trip id="195" depart="164.71" from="-712288152#2" to="-712288152#2" type="passenger"/>
    <trip id="196" depart="165.55" from="773060732#0" to="379943755#1" type="passenger"/>
    <trip id="197" depart="166.40" from="-315658897#1" to="-315658884#1" type="passenger"/>
    <trip id="198" depart="167.24" from="-651817398#2" to="777881147#1" type="passenger"/>
    <trip id="199" depart="168.09" from="-770860565" to="619147739#4" type="passenger"/>
    <trip id="200" depart="168.93" from="-315658884#4" to="-315658896#2" type="passenger"/>
    <trip id="201" depart="169.78" from="318747848#5" to="318747848#5" type="passenger"/>
    <trip id="202" depart="170.62" from="-651817398#5" to="1339697075#6" type="passenger"/>
    <trip id="203" depart="171.47" from="78628770#1" to="315658884#3" type="passenger"/>
    <trip id="204" depart="172.31" from="-712288152#2" to="-384030401#1" type="passenger"/>
    <trip id="205" depart="173.16" from="619147739#5" to="-315658896#1" type="passenger"/>
    <trip id="206" depart="174.00" from="-770860548#2" to="315658884#2" type="passenger"/>
    <trip id="207" depart="174.85" from="-770860549" to="770860549" type="passenger"/>
    <trip id="208" depart="175.69" from="770860548#0" to="-318747848#3" type="passenger"/>
    <trip id="209" depart="176.54" from="315658884#1" to="1339697074" type="passenger"/>
    <trip id="210" depart="177.38" from="-770860549" to="315658884#3" type="passenger"/>
    <trip id="211" depart="178.22" from="-770860565" to="1339697074" type="passenger"/>
    <trip id="212" depart="179.07" from="379943755#1" to="-318747848#2" type="passenger"/>
    <trip id="213" depart="179.91" from="-315658897#0" to="1339697074" type="passenger"/>
    <trip id="214" depart="180.76" from="-770860548#2" to="-315658897#1" type="passenger"/>
    <trip id="215" depart="181.60" from="-770860565" to="315658884#1" type="passenger"/>
    <trip id="216" depart="182.45" from="619147739#3" to="-318747848#7" type="passenger"/>
    <trip id="217" depart="183.29" from="712288152#0" to="712288152#0" type="passenger"/>
    <trip id="218" depart="184.14" from="821457682#1" to="821457682#1" type="passenger"/>
    <trip id="219" depart="184.98" from="318747848#3" to="379943755#1" type="passenger"/>
    <trip id="220" depart="185.83" from="1339655667#1" to="-351672100#0" type="passenger"/>
    <trip id="221" depart="186.67" from="-651817398#2" to="712288152#0" type="passenger"/>
    <trip id="222" depart="187.52" from="-712288152#0" to="384030395" type="passenger"/>
    <trip id="223" depart="188.36" from="318747848#6" to="-1339655670" type="passenger"/>
    <trip id="224" depart="189.21" from="78628775#0" to="1339697075#3" type="passenger"/>
    <trip id="225" depart="190.05" from="318747848#3" to="-315658896#2" type="passenger"/>
    <trip id="226" depart="190.89" from="379943753#1" to="315658896#1" type="passenger"/>
    <trip id="227" depart="191.74" from="315658897#0" to="315658896#1" type="passenger"/>
    <trip id="228" depart="192.58" from="619147739#1" to="-315658896#1" type="passenger"/>
    <trip id="229" depart="193.43" from="770860548#1" to="-315658896#1" type="passenger"/>
    <trip id="230" depart="194.27" from="37403486#2" to="1339697075#3" type="passenger"/>
    <trip id="231" depart="195.12" from="773060732#0" to="712288152#2" type="passenger"/>
    <trip id="232" depart="195.96" from="-770860549" to="1339655667#1" type="passenger"/>
    <trip id="233" depart="196.81" from="78628775#1" to="-770860549" type="passenger"/>
    <trip id="234" depart="197.65" from="384030401#1" to="1339697075#5" type="passenger"/>
    <trip id="235" depart="198.50" from="821457682#1" to="712288152#2" type="passenger"/>
    <trip id="236" depart="199.34" from="318747848#4" to="428544127" type="passenger"/>
    <trip id="237" depart="200.19" from="770860549" to="1339655667#1" type="passenger"/>
    <trip id="238" depart="201.03" from="315658884#1" to="712288152#1" type="passenger"/>
    <trip id="239" depart="201.88" from="619147739#1" to="-315658896#2" type="passenger"/>
    <trip id="240" depart="202.72" from="-315658896#2" to="379943753#0" type="passenger"/>
    <trip id="241" depart="203.56" from="379943753#1" to="315658884#4" type="passenger"/>
    <trip id="242" depart="204.41" from="-318747848#5" to="1339697075#5" type="passenger"/>
    <trip id="243" depart="205.25" from="-770860548#1" to="821457682#0" type="passenger"/>
    <trip id="244" depart="206.10" from="315658896#2" to="-351672100#0" type="passenger"/>
    <trip id="245" depart="206.94" from="78628775#0" to="-37403486#2" type="passenger"/>
    <trip id="246" depart="207.79" from="-712288152#0" to="1339697075#3" type="passenger"/>
    <trip id="247" depart="208.63" from="-712288152#1" to="-712288152#1" type="passenger"/>
    <trip id="248" depart="209.48" from="773060732#0" to="619147739#3" type="passenger"/>
    <trip id="249" depart="210.32" from="777881144#0" to="-318747848#4" type="passenger"/>
    <trip id="250" depart="211.17" from="-770860548#2" to="1339697075#4" type="passenger"/>
    <trip id="251" depart="212.01" from="-315658884#2" to="428544127" type="passenger"/>
    <trip id="252" depart="212.86" from="-318747848#2" to="1339697075#5" type="passenger"/>
    <trip id="253" depart="213.70" from="379943753#0" to="-351672100#1" type="passenger"/>
    <trip id="254" depart="214.55" from="770860548#0" to="315658896#3" type="passenger"/>
    <trip id="255" depart="215.39" from="821457682#0" to="-318747848#7" type="passenger"/>
    <trip id="256" depart="216.23" from="-712288152#0" to="-384030401#1" type="passenger"/>
    <trip id="257" depart="217.08" from="333557072#3" to="315658884#1" type="passenger"/>
    <trip id="258" depart="217.92" from="315658884#2" to="-315658884#4" type="passenger"/>
    <trip id="259" depart="218.77" from="-318747848#6" to="777881144#1" type="passenger"/>
    <trip id="260" depart="219.61" from="315658896#1" to="-351672100#4" type="passenger"/>
    <trip id="261" depart="220.46" from="619147739#1" to="619147739#2" type="passenger"/>
    <trip id="262" depart="221.30" from="619147739#1" to="379943755#1" type="passenger"/>
    <trip id="263" depart="222.15" from="777881144#0" to="1339697074" type="passenger"/>
    <trip id="264" depart="222.99" from="777881144#0" to="-464763971" type="passenger"/>
    <trip id="265" depart="223.84" from="-770860548#1" to="712288152#1" type="passenger"/>
    <trip id="266" depart="224.68" from="712288152#1" to="-315658896#2" type="passenger"/>
    <trip id="267" depart="225.53" from="315658896#1" to="1339655667#1" type="passenger"/>
    <trip id="268" depart="226.37" from="-712288152#1" to="-37403486#2" type="passenger"/>
    <trip id="269" depart="227.22" from="-955312947" to="-315658884#4" type="passenger"/>
    <trip id="270" depart="228.06" from="333557072#3" to="770860549" type="passenger"/>
    <trip id="271" depart="228.90" from="315658897#1" to="318747848#3" type="passenger"/>
    <trip id="272" depart="229.75" from="619147739#1" to="-315658884#2" type="passenger"/>
    <trip id="273" depart="230.59" from="773060732#4" to="315658884#4" type="passenger"/>
    <trip id="274" depart="231.44" from="773060732#0" to="-318747848#6" type="passenger"/>
    <trip id="275" depart="232.28" from="-770860565" to="315658884#2" type="passenger"/>
    <trip id="276" depart="233.13" from="773060732#0" to="1339697075#4" type="passenger"/>
    <trip id="277" depart="233.97" from="318747848#4" to="318747848#4" type="passenger"/>
    <trip id="278" depart="234.82" from="78628775#0" to="821457682#1" type="passenger"/>
    <trip id="279" depart="235.66" from="619147739#3" to="-315658884#3" type="passenger"/>
    <trip id="280" depart="236.51" from="-651817398#1" to="315658897#1" type="passenger"/>
    <trip id="281" depart="237.35" from="379943753#1" to="315658896#1" type="passenger"/>
    <trip id="282" depart="238.20" from="-778973690" to="1339697075#4" type="passenger"/>
    <trip id="283" depart="239.04" from="821457682#1" to="318747848#6" type="passenger"/>
    <trip id="284" depart="239.89" from="333557072#0" to="428544127" type="passenger"/>
    <trip id="285" depart="240.73" from="619147739#4" to="-351672100#4" type="passenger"/>
    <trip id="286" depart="241.57" from="619147739#2" to="777881147#1" type="passenger"/>
    <trip id="287" depart="242.42" from="-712288152#2" to="1339697075#3" type="passenger"/>
    <trip id="288" depart="243.26" from="770860548#1" to="778973690" type="passenger"/>
    <trip id="289" depart="244.11" from="619147739#3" to="318747848#6" type="passenger"/>
    <trip id="290" depart="244.95" from="-318747848#7" to="777881145" type="passenger"/>
    <trip id="291" depart="245.80" from="318747848#5" to="-351672100#0" type="passenger"/>
    <trip id="292" depart="246.64" from="318747848#2" to="379943755#1" type="passenger"/>
    <trip id="293" depart="247.49" from="-651817398#1" to="-651817398#1" type="passenger"/>
    <trip id="294" depart="248.33" from="315658884#1" to="379943755#1" type="passenger"/>
    <trip id="295" depart="249.18" from="770860565" to="78628775#2" type="passenger"/>
    <trip id="296" depart="250.02" from="821457682#0" to="821457682#1" type="passenger"/>
    <trip id="297" depart="250.87" from="773060732#4" to="-318747848#2" type="passenger"/>
    <trip id="298" depart="251.71" from="-651817398#1" to="777881145" type="passenger"/>
    <trip id="299" depart="252.56" from="-318747848#3" to="318747848#6" type="passenger"/>
    <trip id="300" depart="253.40" from="773060732#1" to="315658884#3" type="passenger"/>
    <trip id="301" depart="254.24" from="333557072#1" to="333557072#2" type="passenger"/>
    <trip id="302" depart="255.09" from="333557072#2" to="1339697076#0" type="passenger"/>
    <trip id="303" depart="255.93" from="619147739#2" to="315658896#3" type="passenger"/>
    <trip id="304" depart="256.78" from="318747848#7" to="379943753#1" type="passenger"/>
    <trip id="305" depart="257.62" from="712288152#0" to="778973690" type="passenger"/>
    <trip id="306" depart="258.47" from="78628775#1" to="770860548#2" type="passenger"/>
    <trip id="307" depart="259.31" from="770860565" to="78628770#1" type="passenger"/>
    <trip id="308" depart="260.16" from="315658884#3" to="-318747848#7" type="passenger"/>
    <trip id="309" depart="261.00" from="315658897#0" to="315658897#2" type="passenger"/>
    <trip id="310" depart="261.85" from="333557072#1" to="-318747848#3" type="passenger"/>
    <trip id="311" depart="262.69" from="315658896#2" to="-315658884#1" type="passenger"/>
    <trip id="312" depart="263.54" from="379943753#0" to="-384030401#1" type="passenger"/>
    <trip id="313" depart="264.38" from="-318747848#6" to="315658896#2" type="passenger"/>
    <trip id="314" depart="265.23" from="318747848#7" to="315658884#2" type="passenger"/>
    <trip id="315" depart="266.07" from="773060732#0" to="384030395" type="passenger"/>
    <trip id="316" depart="266.91" from="318747848#7" to="384030395" type="passenger"/>
    <trip id="317" depart="267.76" from="428544127" to="1339697074" type="passenger"/>
    <trip id="318" depart="268.60" from="333557072#3" to="78628770#1" type="passenger"/>
    <trip id="319" depart="269.45" from="773060732#2" to="1339697076#1" type="passenger"/>
    <trip id="320" depart="270.29" from="78628775#2" to="315658897#1" type="passenger"/>
    <trip id="321" depart="271.14" from="773060732#1" to="-351672100#2" type="passenger"/>
    <trip id="322" depart="271.98" from="78628775#0" to="-37403486#2" type="passenger"/>
    <trip id="323" depart="272.83" from="-651817398#3" to="318747848#3" type="passenger"/>