<?xml version="1.0" encoding="UTF-8"?>

<!-- generated on 2026-04-17 02:50:26.224669 by Eclipse SUMO randomTrips.py v1.26.0
<configuration>
    <net-file value="/Users/junlee/Desktop/2026-1/js/result/tradeoff_pet_top12_seed12_60min_20260417_024953/sumo_nets/cw_6213/network.net.xml"/>
    <output-trip-file value="/Users/junlee/Desktop/2026-1/js/result/tradeoff_pet_top12_seed12_60min_20260417_024953/sumo_nets/cw_6213/routes_seed42.trips.xml"/>
    <route-file value="/Users/junlee/Desktop/2026-1/js/result/tradeoff_pet_top12_seed12_60min_20260417_024953/sumo_nets/cw_6213/routes_seed42.rou.xml"/>
    <vehicle-class value="passenger"/>
    <period value="0.9831810581107882"/>
</configuration>
-->

<routes xmlns:xsi="http://www.w3.org/2001/XMLSchema-instance" xsi:noNamespaceSchemaLocation="http://sumo.dlr.de/xsd/routes_file.xsd">
    <vType id="passenger" vClass="passenger"/>
    <trip id="0" depart="0.00" from="619147739#3" to="379943755#1" type="passenger"/>
    <trip id="1" depart="0.98" from="773060732#1" to="-318747848#2" type="passenger"/>
    <trip id="2" depart="1.97" from="-651817398#1" to="315658897#2" type="passenger"/>
    <trip id="3" depart="2.95" from="-315658884#4" to="-384030401#1" type="passenger"/>
    <trip id="4" depart="3.93" from="379943753#0" to="318747848#5" type="passenger"/>
    <trip id="5" depart="4.92" from="712288152#0" to="-1339655670" type="passenger"/>
    <trip id="6" depart="5.90" from="1339655667#0" to="-351672100#2" type="passenger"/>
    <trip id="7" depart="6.88" from="78628775#0" to="1339655667#0" type="passenger"/>
    <trip id="8" depart="7.87" from="-318747848#2" to="-318747848#4" type="passenger"/>
    <trip id="9" depart="8.85" from="619147739#0" to="-315658896#1" type="passenger"/>
    <trip id="10" depart="9.83" from="37403486#2" to="1339697075#1" type="passenger"/>
    <trip id="11" depart="10.81" from="333557072#0" to="384030395" type="passenger"/>
    <trip id="12" depart="11.80" from="-651817398#2" to="-315658884#3" type="passenger"/>
    <trip id="13" depart="12.78" from="-651817398#0" to="778973690" type="passenger"/>
    <trip id="14" depart="13.76" from="770860565" to="-770860549" type="passenger"/>
    <trip id="15" depart="14.75" from="379943753#1" to="1339697075#5" type="passenger"/>
    <trip id="16" depart="15.73" from="773060732#4" to="315658884#4" type="passenger"/>
    <trip id="17" depart="16.71" from="821457682#1" to="315658897#2" type="passenger"/>
    <trip id="18" depart="17.70" from="-318747848#2" to="-315658896#1" type="passenger"/>
    <trip id="19" depart="18.68" from="-315658897#0" to="1339697075#3" type="passenger"/>
    <trip id="20" depart="19.66" from="821457682#1" to="318747848#3" type="passenger"/>
    <trip id="21" depart="20.65" from="78628775#1" to="770860549" type="passenger"/>
    <trip id="22" depart="21.63" from="-318747848#4" to="315658884#1" type="passenger"/>
    <trip id="23" depart="22.61" from="315658897#1" to="-37403486#2" type="passenger"/>
    <trip id="24" depart="23.60" from="-315658884#3" to="777881145" type="passenger"/>
    <trip id="25" depart="24.58" from="773060732#0" to="712288152#2" type="passenger"/>
    <trip id="26" depart="25.56" from="-770860549" to="-315658896#2" type="passenger"/>
    <trip id="27" depart="26.55" from="770860565" to="778973690" type="passenger"/>
    <trip id="28" depart="27.53" from="-315658897#2" to="315658896#3" type="passenger"/>
    <trip id="29" depart="28.51" from="315658896#1" to="318747848#6" type="passenger"/>
    <trip id="30" depart="29.50" from="318747848#6" to="619147739#3" type="passenger"/>
    <trip id="31" depart="30.48" from="-651817398#2" to="-651817398#1" type="passenger"/>
    <trip id="32" depart="31.46" from="-651817398#3" to="379943753#1" type="passenger"/>
    <trip id="33" depart="32.44" from="-651817398#0" to="-351672100#0" type="passenger"/>
    <trip id="34" depart="33.43" from="-318747848#3" to="315658884#1" type="passenger"/>
    <trip id="35" depart="34.41" from="619147739#2" to="379943755#1" type="passenger"/>
    <trip id="36" depart="35.39" from="821457682#0" to="-318747848#4" type="passenger"/>
    <trip id="37" depart="36.38" from="-651817398#4" to="777881145" type="passenger"/>
    <trip id="38" depart="37.36" from="318747848#7" to="-315658896#1" type="passenger"/>
    <trip id="39" depart="38.34" from="78628775#1" to="777881145" type="passenger"/>
    <trip id="40" depart="39.33" from="770860548#1" to="-37403486#1" type="passenger"/>
    <trip id="41" depart="40.31" from="315658884#3" to="1339697076#1" type="passenger"/>
    <trip id="42" depart="41.29" from="78628775#0" to="955312947" type="passenger"/>
    <trip id="43" depart="42.28" from="318747848#6" to="619147739#6" type="passenger"/>
    <trip id="44" depart="43.26" from="-315658897#2" to="-384030401#0" type="passenger"/>
    <trip id="45" depart="44.24" from="-651817398#3" to="-318747848#6" type="passenger"/>
    <trip id="46" depart="45.23" from="351672100#0" to="351672100#2" type="passenger"/>
    <trip id="47" depart="46.21" from="318747848#4" to="777881147#1" type="passenger"/>
    <trip id="48" depart="47.19" from="-651817398#3" to="1339697075#5" type="passenger"/>
    <trip id="49" depart="48.18" from="-770860565" to="619147739#6" type="passenger"/>
    <trip id="50" depart="49.16" from="-315658897#1" to="315658884#4" type="passenger"/>
    <trip id="51" depart="50.14" from="821457682#1" to="955312947" type="passenger"/>
    <trip id="52" depart="51.13" from="773060732#0" to="773060732#2" type="passenger"/>
    <trip id="53" depart="52.11" from="712288152#2" to="428544127" type="passenger"/>
    <trip id="54" depart="53.09" from="379943753#1" to="-1339655670" type="passenger"/>
    <trip id="55" depart="54.07" from="379943755#1" to="777881147#1" type="passenger"/>
    <trip id="56" depart="55.06" from="-318747848#7" to="-318747848#6" type="passenger"/>
    <trip id="57" depart="56.04" from="-318747848#4" to="318747848#6" type="passenger"/>
    <trip id="58" depart="57.02" from="619147739#1" to="-464763971" type="passenger"/>
    <trip id="59" depart="58.01" from="770860548#1" to="-318747848#3" type="passenger"/>
    <trip id="60" depart="58.99" from="619147739#4" to="318747848#6" type="passenger"/>
    <trip id="61" depart="59.97" from="773060732#2" to="318747848#5" type="passenger"/>
    <trip id="62" depart="60.96" from="-651817398#4" to="-318747848#4" type="passenger"/>
    <trip id="63" depart="61.94" from="770860549" to="821457682#0" type="passenger"/>
    <trip id="64" depart="62.92" from="-315658884#3" to="619147739#4" type="passenger"/>
    <trip id="65" depart="63.91" from="-955312947" to="777881147#1" type="passenger"/>
    <trip id="66" depart="64.89" from="770860565" to="770860549" type="passenger"/>
    <trip id="67" depart="65.87" from="-651817398#1" to="712288152#0" type="passenger"/>
    <trip id="68" depart="66.86" from="-315658884#3" to="-384030401#1" type="passenger"/>
    <trip id="69" depart="67.84" from="37403486#2" to="1339697075#5" type="passenger"/>
    <trip id="70" depart="68.82" from="78628775#2" to="318747848#4" type="passenger"/>
    <trip id="71" depart="69.81" from="78628775#1" to="-37403486#2" type="passenger"/>
    <trip id="72" depart="70.79" from="-318747848#4" to="315658884#1" type="passenger"/>
    <trip id="73" depart="71.77" from="-651817398#5" to="619147739#1" type="passenger"/>
    <trip id="74" depart="72.76" from="-315658884#1" to="777881145" type="passenger"/>
    <trip id="75" depart="73.74" from="619147739#4" to="379943755#1" type="passenger"/>
    <trip id="76" depart="74.72" from="-770860565" to="770860548#2" type="passenger"/>
    <trip id="77" depart="75.70" from="-770860549" to="1339697075#6" type="passenger"/>
    <trip id="78" depart="76.69" from="-318747848#6" to="1339697076#1" type="passenger"/>
    <trip id="79" depart="77.67" from="-770860548#2" to="318747848#6" type="passenger"/>
    <trip id="80" depart="78.65" from="379943753#1" to="315658896#1" type="passenger"/>
    <trip id="81" depart="79.64" from="712288152#1" to="619147739#6" type="passenger"/>
    <trip id="82" depart="80.62" from="-651817398#4" to="315658896#2" type="passenger"/>
    <trip id="83" depart="81.60" from="770860548#1" to="-315658897#1" type="passenger"/>
    <trip id="84" depart="82.59" from="-384030395" to="428544127" type="passenger"/>
    <trip id="85" depart="83.57" from="379943753#1" to="-1339655670" type="passenger"/>
    <trip id="86" depart="84.55" from="-318747848#4" to="1339697076#1" type="passenger"/>
    <trip id="87" depart="85.54" from="318747848#3" to="-315658896#1" type="passenger"/>
    <trip id="88" depart="86.52" from="619147739#1" to="315658897#2" type="passenger"/>
    <trip id="89" depart="87.50" from="712288152#2" to="318747848#6" type="passenger"/>
    <trip id="90" depart="88.49" from="773060732#2" to="619147739#5" type="passenger"/>
    <trip id="91" depart="89.47" from="318747848#6" to="-351672100#0" type="passenger"/>
    <trip id="92" depart="90.45" from="619147739#0" to="-315658897#0" type="passenger"/>
    <trip id="93" depart="91.44" from="1339697075#6" to="-464763971" type="passenger"/>
    <trip id="94" depart="92.42" from="-651817398#1" to="-651817398#1" type="passenger"/>
    <trip id="95" depart="93.40" from="315658884#1" to="-315658884#3" type="passenger"/>
    <trip id="96" depart="94.39" from="-955312947" to="384030395" type="passenger"/>
    <trip id="97" depart="95.37" from="315658884#4" to="-318747848#7" type="passenger"/>
    <trip id="98" depart="96.35" from="-318747848#7" to="315658896#1" type="passenger"/>
    <trip id="99" depart="97.33" from="-315658896#2" to="1339697075#3" type="passenger"/>
    <trip id="100" depart="98.32" from="619147739#5" to="712288152#2" type="passenger"/>
    <trip id="101" depart="99.30" from="-651817398#5" to="-318747848#2" type="passenger"/>
    <trip id="102" depart="100.28" from="-315658884#3" to="318747848#5" type="passenger"/>
    <trip id="103" depart="101.27" from="821457682#1" to="1339697074" type="passenger"/>
    <trip id="104" depart="102.25" from="379943753#0" to="619147739#6" type="passenger"/>
    <trip id="105" depart="103.23" from="78628770#1" to="-384030401#1" type="passenger"/>
    <trip id="106" depart="104.22" from="-315658884#3" to="-351672100#2" type="passenger"/>
    <trip id="107" depart="105.20" from="-318747848#6" to="379943753#1" type="passenger"/>
    <trip id="108" depart="106.18" from="619147739#5" to="-318747848#6" type="passenger"/>
    <trip id="109" depart="107.17" from="-318747848#4" to="-315658884#2" type="passenger"/>
    <trip id="110" depart="108.15" from="-770860549" to="379943755#1" type="passenger"/>
    <trip id="111" depart="109.13" from="78628775#0" to="1339697075#5" type="passenger"/>
    <trip id="112" depart="110.12" from="619147739#1" to="-315658897#1" type="passenger"/>
    <trip id="113" depart="111.10" from="1339697076#1" to="1339697075#2" type="passenger"/>
    <trip id="114" depart="112.08" from="318747848#2" to="1339655667#1" type="passenger"/>
    <trip id="115" depart="113.07" from="770860548#1" to="712288152#1" type="passenger"/>
    <trip id="116" depart="114.05" from="619147739#0" to="315658884#2" type="passenger"/>
    <trip id="117" depart="115.03" from="318747848#5" to="315658896#3" type="passenger"/>
    <trip id="118" depart="116.02" from="315658884#1" to="619147739#4" type="passenger"/>
    <trip id="119" depart="117.00" from="712288152#2" to="-318747848#2" type="passenger"/>
    <trip id="120" depart="117.98" from="770860548#1" to="-37403486#2" type="passenger"/>
    <trip id="121" depart="118.96" from="333557072#2" to="315658896#2" type="passenger"/>
    <trip id="122" depart="119.95" from="318747848#5" to="1339697076#1" type="passenger"/>
    <trip id="123" depart="120.93" from="619147739#4" to="1339655667#0" type="passenger"/>
    <trip id="124" depart="121.91" from="-651817398#4" to="-318747848#6" type="passenger"/>
    <trip id="125" depart="122.90" from="315658896#2" to="619147739#3" type="passenger"/>
    <trip id="126" depart="123.88" from="78628775#2" to="318747848#3" type="passenger"/>
    <trip id="127" depart="124.86" from="78628775#2" to="318747848#6" type="passenger"/>
    <trip id="128" depart="125.85" from="770860549" to="315658897#0" type="passenger"/>
    <trip id="129" depart="126.83" from="315658884#4" to="315658884#2" type="passenger"/>
    <trip id="130" depart="127.81" from="712288152#1" to="1339697075#6" type="passenger"/>
    <trip id="131" depart="128.80" from="-315658896#3" to="-351672100#2" type="passenger"/>
    <trip id="132" depart="129.78" from="333557072#0" to="-770860548#1" type="passenger"/>
    <trip id="133" depart="130.76" from="821457682#1" to="-318747848#6" type="passenger"/>
    <trip id="134" depart="131.75" from="318747848#4" to="315658884#3" type="passenger"/>
    <trip id="135" depart="132.73" from="821457682#0" to="-770860548#2" type="passenger"/>
    <trip id="136" depart="133.71" from="619147739#4" to="778973690" type="passenger"/>
    <trip id="137" depart="134.70" from="379943753#1" to="-351672100#4" type="passenger"/>
    <trip id="138" depart="135.68" from="-315658884#1" to="315658884#3" type="passenger"/>
    <trip id="139" depart="136.66" from="-651817398#2" to="619147739#1" type="passenger"/>
    <trip id="140" depart="137.65" from="379943755#1" to="777881147#1" type="passenger"/>
    <trip id="141" depart="138.63" from="712288152#2" to="-315658897#1" type="passenger"/>
    <trip id="142" depart="139.61" from="-770860548#1" to="-318747848#7" type="passenger"/>
    <trip id="143" depart="140.59" from="428544127" to="428544127" type="passenger"/>
    <trip id="144" depart="141.58" from="315658897#0" to="-318747848#2" type="passenger"/>
    <trip id="145" depart="142.56" from="78628770#1" to="955312947" type="passenger"/>
    <trip id="146" depart="143.54" from="-315658896#1" to="619147739#6" type="passenger"/>
    <trip id="147" depart="144.53" from="773060732#4" to="-37403486#2" type="passenger"/>
    <trip id="148" depart="145.51" from="315658897#0" to="-318747848#3" type="passenger"/>
    <trip id="149" depart="146.49" from="-778973690" to="384030401#1" type="passenger"/>
    <trip id="150" depart="147.48" from="-770860548#1" to="778973690" type="passenger"/>
    <trip id="151" depart="148.46" from="712288152#0" to="318747848#6" type="passenger"/>
    <trip id="152" depart="149.44" from="821457682#0" to="379943753#0" type="passenger"/>
    <trip id="153" depart="150.43" from="318747848#6" to="1339697076#0" type="passenger"/>
    <trip id="154" depart="151.41" from="318747848#7" to="777881145" type="passenger"/>
    <trip id="155" depart="152.39" from="315658884#1" to="428544127" type="passenger"/>
    <trip id="156" depart="153.38" from="318747848#7" to="-318747848#3" type="passenger"/>
    <trip id="157" depart="154.36" from="315658884#4" to="-318747848#6" type="passenger"/>
    <trip id="158" depart="155.34" from="712288152#2" to="315658897#1" type="passenger"/>
    <trip id="159" depart="156.33" from="619147739#1" to="315658897#2" type="passenger"/>
    <trip id="160" depart="157.31" from="318747848#7" to="1339697075#4" type="passenger"/>
    <trip id="161" depart="158.29" from="777881144#0" to="315658897#2" type="passenger"/>
    <trip id="162" depart="159.28" from="318747848#2" to="712288152#1" type="passenger"/>
    <trip id="163" depart="160.26" from="333557072#3" to="955312947" type="passenger"/>
    <trip id="164" depart="161.24" from="315658897#0" to="-351672100#2" type="passenger"/>
    <trip id="165" depart="162.22" from="318747848#5" to="1339655667#1" type="passenger"/>
    <trip id="166" depart="163.21" from="318747848#7" to="318747848#5" type="passenger"/>
    <trip id="167" depart="164.19" from="712288152#0" to="1339697075#4" type="passenger"/>
    <trip id="168" depart="165.17" from="379943755#1" to="712288152#1" type="passenger"/>
    <trip id="169" depart="166.16" from="78628775#2" to="315658897#0" type="passenger"/>
    <trip id="170" depart="167.14" from="770860565" to="315658884#2" type="passenger"/>
    <trip id="171" depart="168.12" from="318747848#4" to="315658884#4" type="passenger"/>
    <trip id="172" depart="169.11" from="619147739#2" to="1339697076#0" type="passenger"/>
    <trip id="173" depart="170.09" from="379943753#1" to="-351672100#2" type="passenger"/>
    <trip id="174" depart="171.07" from="770860565" to="-315658884#4" type="passenger"/>
    <trip id="175" depart="172.06" from="773060732#4" to="955312947" type="passenger"/>
    <trip id="176" depart="173.04" from="619147739#4" to="315658884#1" type="passenger"/>
    <trip id="177" depart="174.02" from="770860565" to="315658884#3" type="passenger"/>
    <trip id="178" depart="175.01" from="-770860548#1" to="1339697075#3" type="passenger"/>
    <trip id="179" depart="175.99" from="773060732#2" to="379943755#1" type="passenger"/>
    <trip id="180" depart="176.97" from="-384030395" to="1339697075#4" type="passenger"/>
    <trip id="181" depart="177.96" from="333557072#1" to="333557072#2" type="passenger"/>
    <trip id="182" depart="178.94" from="821457682#1" to="-770860548#0" type="passenger"/>
    <trip id="183" depart="179.92" from="78628775#2" to="379943753#0" type="passenger"/>
    <trip id="184" depart="180.91" from="351672100#1" to="1339697074" type="passenger"/>
    <trip id="185" depart="181.89" from="619147739#3" to="-318747848#3" type="passenger"/>
    <trip id="186" depart="182.87" from="-770860548#1" to="619147739#5" type="passenger"/>
    <trip id="187" depart="183.85" from="-37403486#1" to="-351672100#0" type="passenger"/>
    <trip id="188" depart="184.84" from="318747848#5" to="777881144#1" type="passenger"/>
    <trip id="189" depart="185.82" from="712288152#1" to="315658896#3" type="passenger"/>
    <trip id="190" depart="186.80" from="-955312947" to="-318747848#6" type="passenger"/>
    <trip id="191" depart="187.79" from="78628775#0" to="-351672100#1" type="passenger"/>
    <trip id="192" depart="188.77" from="78628775#1" to="770860549" type="passenger"/>
    <trip id="193" depart="189.75" from="-315658884#2" to="318747848#4" type="passenger"/>
    <trip id="194" depart="190.74" from="315658884#3" to="379943755#1" type="passenger"/>
    <trip id="195" depart="191.72" from="712288152#1" to="778973690" type="passenger"/>
    <trip id="196" depart="192.70" from="333557072#0" to="777881144#1" type="passenger"/>
    <trip id="197" depart="193.69" from="-651817398#1" to="-315658897#0" type="passenger"/>
    <trip id="198" depart="194.67" from="-770860548#2" to="1339697075#6" type="passenger"/>
    <trip id="199" depart="195.65" from="-770860549" to="315658897#0" type="passenger"/>
    <trip id="200" depart="196.64" from="-318747848#7" to="315658884#4" type="passenger"/>
    <trip id="201" depart="197.62" from="619147739#4" to="-351672100#2" type="passenger"/>
    <trip id="202" depart="198.60" from="315658897#0" to="1339697075#6" type="passenger"/>
    <trip id="203" depart="199.59" from="78628770#1" to="-315658884#3" type="passenger"/>
    <trip id="204" depart="200.57" from="-318747848#3" to="384030395" type="passenger"/>
    <trip id="205" depart="201.55" from="1339655670" to="1339697075#5" type="passenger"/>
    <trip id="206" depart="202.54" from="770860548#1" to="315658884#4" type="passenger"/>
    <trip id="207" depart="203.52" from="-318747848#6" to="318747848#7" type="passenger"/>
    <trip id="208" depart="204.50" from="-651817398#4" to="-37403486#2" type="passenger"/>
    <trip id="209" depart="205.48" from="379943755#1" to="-315658884#2" type="passenger"/>
    <trip id="210" depart="206.47" from="619147739#4" to="318747848#3" type="passenger"/>
    <trip id="211" depart="207.45" from="619147739#4" to="315658896#2" type="passenger"/>
    <trip id="212" depart="208.43" from="-318747848#4" to="315658897#1" type="passenger"/>
    <trip id="213" depart="209.42" from="318747848#3" to="315658884#4" type="passenger"/>
    <trip id="214" depart="210.40" from="78628775#0" to="-315658896#2" type="passenger"/>
    <trip id="215" depart="211.38" from="315658896#2" to="1339697075#6" type="passenger"/>
    <trip id="216" depart="212.37" from="773060732#3" to="-315658897#1" type="passenger"/>
    <trip id="217" depart="213.35" from="318747848#5" to="315658884#4" type="passenger"/>
    <trip id="218" depart="214.33" from="-955312947" to="315658884#4" type="passenger"/>
    <trip id="219" depart="215.32" from="777881144#0" to="-315658897#0" type="passenger"/>
    <trip id="220" depart="216.30" from="712288152#2" to="-318747848#3" type="passenger"/>
    <trip id="221" depart="217.28" from="-318747848#3" to="619147739#4" type="passenger"/>
    <trip id="222" depart="218.27" from="712288152#0" to="318747848#6" type="passenger"/>
    <trip id="223" depart="219.25" from="333557072#3" to="318747848#7" type="passenger"/>
    <trip id="224" depart="220.23" from="351672100#1" to="1339697074" type="passenger"/>
    <trip id="225" depart="221.22" from="770860548#1" to="821457682#0" type="passenger"/>
    <trip id="226" depart="222.20" from="777881144#0" to="712288152#2" type="passenger"/>
    <trip id="227" depart="223.18" from="-712288152#0" to="-37403486#2" type="passenger"/>
    <trip id="228" depart="224.17" from="1339655667#0" to="-1339655670" type="passenger"/>
    <trip id="229" depart="225.15" from="-315658897#2" to="-315658896#2" type="passenger"/>
    <trip id="230" depart="226.13" from="379943755#1" to="315658896#3" type="passenger"/>
    <trip id="231" depart="227.11" from="619147739#5" to="-318747848#6" type="passenger"/>
    <trip id="232" depart="228.10" from="379943755#1" to="-315658896#1" type="passenger"/>
    <trip id="233" depart="229.08" from="-651817398#0" to="-351672100#0" type="passenger"/>
    <trip id="234" depart="230.06" from="-315658884#1" to="619147739#5" type="passenger"/>
    <trip id="235" depart="231.05" from="619147739#0" to="1339697076#1" type="passenger"/>
    <trip id="236" depart="232.03" from="-318747848#5" to="-315658884#2" type="passenger"/>
    <trip id="237" depart="233.01" from="773060732#4" to="-318747848#3" type="passenger"/>
    <trip id="238" depart="234.00" from="333557072#3" to="318747848#3" type="passenger"/>
    <trip id="239" depart="234.98" from="1339655667#0" to="1339655667#0" type="passenger"/>
    <trip id="240" depart="235.96" from="-318747848#5" to="315658897#2" type="passenger"/>
    <trip id="241" depart="236.95" from="773060732#3" to="1339697074" type="passenger"/>
    <trip id="242" depart="237.93" from="619147739#2" to="712288152#1" type="passenger"/>
    <trip id="243" depart="238.91" from="379943753#1" to="-37403486#2" type="passenger"/>
    <trip id="244" depart="239.90" from="315658884#2" to="777881145" type="passenger"/>
    <trip id="245" depart="240.88" from="-315658897#0" to="315658884#2" type="passenger"/>
    <trip id="246" depart="241.86" from="-315658896#3" to="315658897#2" type="passenger"/>
    <trip id="247" depart="242.85" from="-770860549" to="315658884#3" type="passenger"/>
    <trip id="248" depart="243.83" from="-315658896#3" to="712288152#2" type="passenger"/>
    <trip id="249" depart="244.81" from="318747848#2" to="315658896#1" type="passenger"/>
    <trip id="250" depart="245.80" from="773060732#2" to="315658884#3" type="passenger"/>
    <trip id="251" depart="246.78" from="-770860565" to="315658896#2" type="passenger"/>
    <trip id="252" depart="247.76" from="318747848#2" to="-37403486#1" type="passenger"/>
    <trip id="253" depart="248.74" from="-651817398#4" to="315658884#2" type="passenger"/>
    <trip id="254" depart="249.73" from="315658884#1" to="318747848#3" type="passenger"/>
    <trip id="255" depart="250.71" from="-712288152#2" to="1339697076#0" type="passenger"/>
    <trip id="256" depart="251.69" from="-315658897#0" to="-318747848#3" type="passenger"/>
    <trip id="257" depart="252.68" from="619147739#2" to="379943753#0" type="passenger"/>
    <trip id="258" depart="253.66" from="78628775#1" to="428544127" type="passenger"/>
    <trip id="259" depart="254.64" from="712288152#0" to="379943755#1" type="passenger"/>
    <trip id="260" depart="255.63" from="712288152#2" to="619147739#4" type="passenger"/>
    <trip id="261" depart="256.61" from="379943753#0" to="1339697076#1" type="passenger"/>
    <trip id="262" depart="257.59" from="1339655670" to="1339697075#1" type="passenger"/>
    <trip id="263" depart="258.58" from="-651817398#2" to="-351672100#0" type="passenger"/>
    <trip id="264" depart="259.56" from="712288152#0" to="-37403486#1" type="passenger"/>
    <trip id="265" depart="260.54" from="315658884#1" to="1339697076#0" type="passenger"/>
    <trip id="266" depart="261.53" from="619147739#5" to="315658884#3" type="passenger"/>
    <trip id="267" depart="262.51" from="770860548#0" to="1339697075#2" type="passenger"/>
    <trip id="268" depart="263.49" from="78628775#1" to="712288152#0" type="passenger"/>
    <trip id="269" depart="264.48" from="770860565" to="318747848#6" type="passenger"/>
    <trip id="270" depart="265.46" from="773060732#3" to="-351672100#1" type="passenger"/>
    <trip id="271" depart="266.44" from="315658884#1" to="778973690" type="passenger"/>
    <trip id="272" depart="267.43" from="-651817398#1" to="315658884#3" type="passenger"/>
    <trip id="273" depart="268.41" from="-315658896#3" to="315658897#1" type="passenger"/>
    <trip id="274" depart="269.39" from="-651817398#3" to="955312947" type="passenger"/>
    <trip id="275" depart="270.37" from="712288152#2" to="428544127" type="passenger"/>
    <trip id="276" depart="271.36" from="315658884#2" to="-1339655670" type="passenger"/>
    <trip id="277" depart="272.34" from="770860548#0" to="318747848#6" type="passenger"/>
    <trip id="278" depart="273.32" from="619147739#2" to="318747848#3" type="passenger"/>
    <trip id="279" depart="274.31" from="-770860548#2" to="-315658896#1" type="passenger"/>
    <trip id="280" depart="275.29" from="315658884#3" to="-318747848#5" type="passenger"/>
    <trip id="281" depart="276.27" from="-651817398#3" to="-351672100#1" type="passenger"/>
    <trip id="282" depart="277.26" from="-651817398#3" to="1339697076#0" type="passenger"/>
    <trip id="283" depart="278.24" from="379943755#1" to="-318747848#2" type="passenger"/>
    <trip id="284" depart="279.22" from="78628775#2" to="-315658897#0" type="passenger"/>
    <trip id="285" depart="280.21" from="318747848#4" to="315658897#2" type="passenger"/>
    <trip id="286" depart="281.19" from="821457682#0" to="318747848#6" type="passenger"/>
    <trip id="287" depart="282.17" from="-651817398#5" to="-315658884#1" type="passenger"/>
    <trip id="288" depart="283.16" from="-955312947" to="-315658896#1" type="passenger"/>
    <trip id="289" depart="284.14" from="318747848#6" to="712288152#0" type="passenger"/>
    <trip id="290" depart="285.12" from="-315658896#2" to="-384030401#1" type="passenger"/>
    <trip id="291" depart="286.11" from="619147739#5" to="-384030401#0" type="passenger"/>
    <trip id="292" depart="287.09" from="770860549" to="1339655667#0" type="passenger"/>
    <trip id="293" depart="288.07" from="-318747848#6" to="1339697075#2" type="passenger"/>
    <trip id="294" depart="289.06" from="773060732#1" to="619147739#5" type="passenger"/>
    <trip id="295" depart="290.04" from="773060732#1" to="1339697075#4" type="passenger"/>
    <trip id="296" depart="291.02" from="78628775#1" to="315658897#1" type="passenger"/>
    <trip id="297" depart="292.00" from="315658897#1" to="777881145" type="passenger"/>
    <trip id="298" depart="292.99" from="619147739#2" to="-318747848#2" type="passenger"/>
    <trip id="299" depart="293.97" from="-315658897#2" to="379943753#1" type="passenger"/>
    <trip id="300" depart="294.95" from="770860565" to="1339697074" type="passenger"/>
    <trip id="301" depart="295.94" from="78628775#2" to="78628770#1" type="passenger"/>
    <trip id="302" depart="296.92" from="1339697075#1" to="1339697075#4" type="passenger"/>
    <trip id="303" depart="297.90" from="333557072#2" to="318747848#3" type="passenger"/>
    <trip id="304" depart="298.89" from="-651817398#4" to="-318747848#6" type="passenger"/>
    <trip id="305" depart="299.87" from="619147739#3" to="315658897#1" type="passenger"/>
    <trip id="306" depart="300.85" from="315658884#2" to="955312947" type="passenger"/>
    <trip id="307" depart="301.84" from="315658897#0" to="-318747848#7" type="passenger"/>
    <trip id="308" depart="302.82" from="773060732#2" to="315658884#3" type="passenger"/>
    <trip id="309" depart="303.80" from="-318747848#2" to="384030395" type="passenger"/>
    <trip id="310" depart="304.79" from="770860548#1" to="-770860549" type="passenger"/>
    <trip id="311" depart="305.77" from="-318747848#5" to="-464763971" type="passenger"/>
    <trip id="312" depart="306.75" from="-315658884#4" to="318747848#6" type="passenger"/>
    <trip id="313" depart="307.74" from="712288152#1" to="-315658897#1" type="passenger"/>
    <trip id="314" depart="308.72" from="315658884#2" to="384030395" type="passenger"/>
    <trip id="315" depart="309.70" from="-315658896#3" to="-318747848#7" type="passenger"/>
    <trip id="316" depart="310.69" from="1339655667#0" to="778973690" type="passenger"/>
    <trip id="317" depart="311.67" from="318747848#7" to="-318747848#7" type="passenger"/>
    <trip id="318" depart="312.65" from="-770860548#2" to="318747848#4" type="passenger"/>
    <trip id="319" depart="313.63" from="315658897#1" to="-37403486#1" type="passenger"/>
    <trip id="320" depart="314.62" from="333557072#0" to="712288152#1" type="passenger"/>
    <trip id="321" depart="315.60" from="-315658884#4" to="-315658896#1" type="passenger"/>
    <trip id="322" depart="316.58" from="-315658897#1" to="-315658896#2" type="passenger"/>
    <trip id="323" depart="317.57" from="315658884#1" to="315658896#3" type="passenger"/>
    <trip id="324" depart="318.55" from="78628775#2" to="-351672100#0" type="passenger"/>