<?xml version="1.0" encoding="UTF-8"?>

<!-- generated on 2026-04-17 02:50:28.221111 by Eclipse SUMO randomTrips.py v1.26.0
<configuration>
    <net-file value="/Users/junlee/Desktop/2026-1/js/result/tradeoff_pet_top12_seed12_60min_20260417_024953/sumo_nets/cw_6213/network.net.xml"/>
    <output-trip-file value="/Users/junlee/Desktop/2026-1/js/result/tradeoff_pet_top12_seed12_60min_20260417_024953/sumo_nets/cw_6213/routes_seed44.trips.xml"/>
    <route-file value="/Users/junlee/Desktop/2026-1/js/result/tradeoff_pet_top12_seed12_60min_20260417_024953/sumo_nets/cw_6213/routes_seed44.rou.xml"/>
    <vehicle-class value="passenger"/>
    <seed value="44"/>
    <period value="0.8609383720151296"/>
</configuration>
-->

<routes xmlns:xsi="http://www.w3.org/2001/XMLSchema-instance" xsi:noNamespaceSchemaLocation="http://sumo.dlr.de/xsd/routes_file.xsd">
    <vType id="passenger" vClass="passenger"/>
    <trip id="0" depart="0.00" from="770860549" to="-37403486#2" type="passenger"/>
    <trip id="1" depart="0.86" from="-651817398#1" to="-315658884#3" type="passenger"/>
    <trip id="2" depart="1.72" from="-318747848#5" to="-315658884#1" type="passenger"/>
    <trip id="3" depart="2.58" from="1339697075#2" to="1339697075#6" type="passenger"/>
    <trip id="4" depart="3.44" from="-315658897#1" to="-318747848#3" type="passenger"/>
    <trip id="5" depart="4.30" from="78628775#0" to="-318747848#5" type="passenger"/>
    <trip id="6" depart="5.17" from="315658896#1" to="777881144#1" type="passenger"/>
    <trip id="7" depart="6.03" from="-651817398#4" to="-315658896#1" type="passenger"/>
    <trip id="8" depart="6.89" from="315658884#1" to="-315658884#4" type="passenger"/>
    <trip id="9" depart="7.75" from="619147739#1" to="619147739#4" type="passenger"/>
    <trip id="10" depart="8.61" from="333557072#3" to="318747848#5" type="passenger"/>
    <trip id="11" depart="9.47" from="-651817398#2" to="315658884#4" type="passenger"/>
    <trip id="12" depart="10.33" from="770860548#0" to="-315658896#1" type="passenger"/>
    <trip id="13" depart="11.19" from="-315658884#2" to="619147739#6" type="passenger"/>
    <trip id="14" depart="12.05" from="379943753#0" to="318747848#5" type="passenger"/>
    <trip id="15" depart="12.91" from="821457682#1" to="1339697075#1" type="passenger"/>
    <trip id="16" depart="13.78" from="-712288152#1" to="-1339655670" type="passenger"/>
    <trip id="17" depart="14.64" from="770860548#0" to="712288152#2" type="passenger"/>
    <trip id="18" depart="15.50" from="-770860548#2" to="1339697075#6" type="passenger"/>
    <trip id="19" depart="16.36" from="318747848#6" to="778973690" type="passenger"/>
    <trip id="20" depart="17.22" from="-315658897#1" to="315658884#2" type="passenger"/>
    <trip id="21" depart="18.08" from="318747848#5" to="712288152#1" type="passenger"/>
    <trip id="22" depart="18.94" from="-651817398#3" to="428544127" type="passenger"/>
    <trip id="23" depart="19.80" from="333557072#0" to="-315658897#1" type="passenger"/>
    <trip id="24" depart="20.66" from="-712288152#1" to="1339697076#0" type="passenger"/>
    <trip id="25" depart="21.52" from="-651817398#4" to="-651817398#2" type="passenger"/>
    <trip id="26" depart="22.38" from="-770860565" to="-770860565" type="passenger"/>
    <trip id="27" depart="23.25" from="78628775#0" to="619147739#5" type="passenger"/>
    <trip id="28" depart="24.11" from="619147739#3" to="-1339655670" type="passenger"/>
    <trip id="29" depart="24.97" from="-770860549" to="318747848#4" type="passenger"/>
    <trip id="30" depart="25.83" from="-651817398#0" to="-318747848#7" type="passenger"/>
    <trip id="31" depart="26.69" from="-318747848#5" to="1339697075#5" type="passenger"/>
    <trip id="32" depart="27.55" from="-770860549" to="-318747848#7" type="passenger"/>
    <trip id="33" depart="28.41" from="384030401#1" to="384030401#1" type="passenger"/>
    <trip id="34" depart="29.27" from="-770860565" to="379943753#0" type="passenger"/>
    <trip id="35" depart="30.13" from="712288152#1" to="-315658884#1" type="passenger"/>
    <trip id="36" depart="30.99" from="-315658884#2" to="-315658897#1" type="passenger"/>
    <trip id="37" depart="31.85" from="333557072#0" to="770860549" type="passenger"/>
    <trip id="38" depart="32.72" from="777881144#0" to="-351672100#4" type="passenger"/>
    <trip id="39" depart="33.58" from="773060732#1" to="712288152#2" type="passenger"/>
    <trip id="40" depart="34.44" from="-651817398#4" to="-712288152#1" type="passenger"/>
    <trip id="41" depart="35.30" from="379943753#1" to="-37403486#1" type="passenger"/>
    <trip id="42" depart="36.16" from="773060732#1" to="315658896#2" type="passenger"/>
    <trip id="43" depart="37.02" from="770860565" to="315658897#1" type="passenger"/>
    <trip id="44" depart="37.88" from="-651817398#1" to="315658884#1" type="passenger"/>
    <trip id="45" depart="38.74" from="-770860548#2" to="-37403486#1" type="passenger"/>
    <trip id="46" depart="39.60" from="770860565" to="1339655667#1" type="passenger"/>
    <trip id="47" depart="40.46" from="315658897#1" to="-1339655670" type="passenger"/>
    <trip id="48" depart="41.33" from="318747848#5" to="1339697075#1" type="passenger"/>
    <trip id="49" depart="42.19" from="78628775#0" to="-315658896#2" type="passenger"/>
    <trip id="50" depart="43.05" from="333557072#0" to="712288152#2" type="passenger"/>
    <trip id="51" depart="43.91" from="315658897#1" to="778973690" type="passenger"/>
    <trip id="52" depart="44.77" from="773060732#0" to="318747848#4" type="passenger"/>
    <trip id="53" depart="45.63" from="-315658884#4" to="-315658884#1" type="passenger"/>
    <trip id="54" depart="46.49" from="-315658884#2" to="619147739#3" type="passenger"/>
    <trip id="55" depart="47.35" from="333557072#3" to="379943755#1" type="passenger"/>
    <trip id="56" depart="48.21" from="318747848#5" to="-318747848#5" type="passenger"/>
    <trip id="57" depart="49.07" from="318747848#4" to="777881144#1" type="passenger"/>
    <trip id="58" depart="49.93" from="712288152#0" to="318747848#4" type="passenger"/>
    <trip id="59" depart="50.80" from="-315658897#2" to="315658897#2" type="passenger"/>
    <trip id="60" depart="51.66" from="1339697076#1" to="1339697076#1" type="passenger"/>
    <trip id="61" depart="52.52" from="-770860549" to="619147739#4" type="passenger"/>
    <trip id="62" depart="53.38" from="-770860548#1" to="333557072#5" type="passenger"/>
    <trip id="63" depart="54.24" from="773060732#3" to="315658884#4" type="passenger"/>
    <trip id="64" depart="55.10" from="78628770#1" to="379943755#1" type="passenger"/>
    <trip id="65" depart="55.96" from="-315658884#3" to="-318747848#2" type="passenger"/>
    <trip id="66" depart="56.82" from="78628775#2" to="318747848#7" type="passenger"/>
    <trip id="67" depart="57.68" from="770860565" to="315658896#3" type="passenger"/>
    <trip id="68" depart="58.54" from="-770860548#2" to="777881145" type="passenger"/>
    <trip id="69" depart="59.40" from="318747848#7" to="1339697075#6" type="passenger"/>
    <trip id="70" depart="60.27" from="318747848#3" to="1339697075#2" type="passenger"/>
    <trip id="71" depart="61.13" from="-315658897#1" to="-315658896#1" type="passenger"/>
    <trip id="72" depart="61.99" from="-315658884#2" to="-351672100#4" type="passenger"/>
    <trip id="73" depart="62.85" from="318747848#6" to="-1339655670" type="passenger"/>
    <trip id="74" depart="63.71" from="-651817398#5" to="-384030401#0" type="passenger"/>
    <trip id="75" depart="64.57" from="379943753#0" to="315658884#4" type="passenger"/>
    <trip id="76" depart="65.43" from="821457682#0" to="78628770#1" type="passenger"/>
    <trip id="77" depart="66.29" from="-770860549" to="-315658884#3" type="passenger"/>
    <trip id="78" depart="67.15" from="619147739#0" to="1339697075#2" type="passenger"/>
    <trip id="79" depart="68.01" from="712288152#2" to="-315658884#2" type="passenger"/>
    <trip id="80" depart="68.88" from="-770860565" to="318747848#2" type="passenger"/>
    <trip id="81" depart="69.74" from="-770860548#1" to="1339697075#4" type="passenger"/>
    <trip id="82" depart="70.60" from="-318747848#5" to="777881145" type="passenger"/>
    <trip id="83" depart="71.46" from="-770860549" to="318747848#2" type="passenger"/>
    <trip id="84" depart="72.32" from="78628775#1" to="-351672100#1" type="passenger"/>
    <trip id="85" depart="73.18" from="-315658896#2" to="-318747848#7" type="passenger"/>
    <trip id="86" depart="74.04" from="-651817398#5" to="-315658884#1" type="passenger"/>
    <trip id="87" depart="74.90" from="-315658884#4" to="619147739#6" type="passenger"/>
    <trip id="88" depart="75.76" from="315658884#2" to="712288152#2" type="passenger"/>
    <trip id="89" depart="76.62" from="-770860548#1" to="619147739#6" type="passenger"/>
    <trip id="90" depart="77.48" from="-770860549" to="1339655667#0" type="passenger"/>
    <trip id="91" depart="78.35" from="-318747848#2" to="379943755#1" type="passenger"/>
    <trip id="92" depart="79.21" from="379943755#1" to="379943753#0" type="passenger"/>
    <trip id="93" depart="80.07" from="712288152#0" to="318747848#7" type="passenger"/>
    <trip id="94" depart="80.93" from="619147739#4" to="619147739#5" type="passenger"/>
    <trip id="95" depart="81.79" from="-315658884#2" to="-315658896#1" type="passenger"/>
    <trip id="96" depart="82.65" from="-651817398#5" to="777881145" type="passenger"/>
    <trip id="97" depart="83.51" from="78628775#2" to="712288152#0" type="passenger"/>
    <trip id="98" depart="84.37" from="-318747848#7" to="-318747848#4" type="passenger"/>
    <trip id="99" depart="85.23" from="712288152#2" to="1339697076#0" type="passenger"/>
    <trip id="100" depart="86.09" from="-315658884#4" to="-318747848#4" type="passenger"/>
    <trip id="101" depart="86.95" from="619147739#4" to="1339697076#0" type="passenger"/>
    <trip id="102" depart="87.82" from="712288152#1" to="-315658884#4" type="passenger"/>
    <trip id="103" depart="88.68" from="619147739#3" to="315658884#2" type="passenger"/>
    <trip id="104" depart="89.54" from="333557072#1" to="1339697076#0" type="passenger"/>
    <trip id="105" depart="90.40" from="712288152#0" to="1339697076#0" type="passenger"/>
    <trip id="106" depart="91.26" from="78628775#0" to="-315658896#2" type="passenger"/>
    <trip id="107" depart="92.12" from="770860565" to="315658884#3" type="passenger"/>
    <trip id="108" depart="92.98" from="-651817398#3" to="384030395" type="passenger"/>
    <trip id="109" depart="93.84" from="619147739#1" to="379943755#1" type="passenger"/>
    <trip id="110" depart="94.70" from="315658897#0" to="-318747848#6" type="passenger"/>
    <trip id="111" depart="95.56" from="619147739#5" to="428544127" type="passenger"/>
    <trip id="112" depart="96.43" from="78628775#1" to="821457682#1" type="passenger"/>
    <trip id="113" depart="97.29" from="773060732#3" to="315658897#2" type="passenger"/>
    <trip id="114" depart="98.15" from="770860548#0" to="318747848#7" type="passenger"/>
    <trip id="115" depart="99.01" from="773060732#3" to="315658897#2" type="passenger"/>
    <trip id="116" depart="99.87" from="-315658897#2" to="-315658897#0" type="passenger"/>
    <trip id="117" depart="100.73" from="770860548#1" to="-37403486#2" type="passenger"/>
    <trip id="118" depart="101.59" from="712288152#1" to="955312947" type="passenger"/>
    <trip id="119" depart="102.45" from="315658896#2" to="-318747848#3" type="passenger"/>
    <trip id="120" depart="103.31" from="-770860548#1" to="619147739#3" type="passenger"/>
    <trip id="121" depart="104.17" from="-318747848#4" to="1339655667#0" type="passenger"/>
    <trip id="122" depart="105.03" from="712288152#1" to="-318747848#4" type="passenger"/>
    <trip id="123" depart="105.90" from="78628775#2" to="315658884#4" type="passenger"/>
    <trip id="124" depart="106.76" from="-770860565" to="-315658897#0" type="passenger"/>
    <trip id="125" depart="107.62" from="-315658884#3" to="1339697076#0" type="passenger"/>
    <trip id="126" depart="108.48" from="619147739#4" to="619147739#3" type="passenger"/>
    <trip id="127" depart="109.34" from="770860549" to="-770860549" type="passenger"/>
    <trip id="128" depart="110.20" from="318747848#6" to="-318747848#2" type="passenger"/>
    <trip id="129" depart="111.06" from="318747848#3" to="-1339655670" type="passenger"/>
    <trip id="130" depart="111.92" from="-651817398#3" to="-712288152#1" type="passenger"/>
    <trip id="131" depart="112.78" from="-955312947" to="-1339655670" type="passenger"/>
    <trip id="132" depart="113.64" from="-315658884#4" to="315658896#2" type="passenger"/>
    <trip id="133" depart="114.50" from="78628775#2" to="1339655667#0" type="passenger"/>
    <trip id="134" depart="115.37" from="318747848#5" to="-351672100#1" type="passenger"/>
    <trip id="135" depart="116.23" from="1339697075#1" to="-464763971" type="passenger"/>
    <trip id="136" depart="117.09" from="315658897#0" to="315658884#4" type="passenger"/>
    <trip id="137" depart="117.95" from="379943755#1" to="1339697075#6" type="passenger"/>
    <trip id="138" depart="118.81" from="315658896#2" to="-318747848#4" type="passenger"/>
    <trip id="139" depart="119.67" from="379943753#0" to="-1339655670" type="passenger"/>
    <trip id="140" depart="120.53" from="-315658897#0" to="-464763971" type="passenger"/>
    <trip id="141" depart="121.39" from="619147739#0" to="315658897#1" type="passenger"/>
    <trip id="142" depart="122.25" from="-315658897#2" to="318747848#7" type="passenger"/>
    <trip id="143" depart="123.11" from="770860565" to="315658896#1" type="passenger"/>
    <trip id="144" depart="123.98" from="379943753#0" to="-318747848#3" type="passenger"/>
    <trip id="145" depart="124.84" from="-315658884#1" to="315658896#1" type="passenger"/>
    <trip id="146" depart="125.70" from="384030401#1" to="-351672100#2" type="passenger"/>
    <trip id="147" depart="126.56" from="821457682#1" to="333557072#5" type="passenger"/>
    <trip id="148" depart="127.42" from="333557072#0" to="1339697075#4" type="passenger"/>
    <trip id="149" depart="128.28" from="351672100#1" to="428544127" type="passenger"/>
    <trip id="150" depart="129.14" from="777881144#0" to="955312947" type="passenger"/>
    <trip id="151" depart="130.00" from="78628775#2" to="315658896#1" type="passenger"/>
    <trip id="152" depart="130.86" from="-315658897#2" to="-464763971" type="passenger"/>
    <trip id="153" depart="131.72" from="619147739#4" to="315658884#1" type="passenger"/>
    <trip id="154" depart="132.58" from="-318747848#4" to="1339697075#2" type="passenger"/>
    <trip id="155" depart="133.45" from="619147739#2" to="712288152#2" type="passenger"/>
    <trip id="156" depart="134.31" from="770860549" to="1339697075#5" type="passenger"/>
    <trip id="157" depart="135.17" from="-315658897#1" to="-37403486#1" type="passenger"/>
    <trip id="158" depart="136.03" from="-770860565" to="619147739#4" type="passenger"/>
    <trip id="159" depart="136.89" from="-315658896#2" to="1339697075#5" type="passenger"/>
    <trip id="160" depart="137.75" from="78628775#1" to="-318747848#2" type="passenger"/>
    <trip id="161" depart="138.61" from="773060732#3" to="1339697075#5" type="passenger"/>
    <trip id="162" depart="139.47" from="351672100#2" to="1339697075#1" type="passenger"/>
    <trip id="163" depart="140.33" from="-315658897#1" to="315658896#1" type="passenger"/>
    <trip id="164" depart="141.19" from="315658897#0" to="318747848#3" type="passenger"/>
    <trip id="165" depart="142.05" from="315658884#3" to="-318747848#2" type="passenger"/>
    <trip id="166" depart="142.92" from="318747848#3" to="-315658884#4" type="passenger"/>
    <trip id="167" depart="143.78" from="-770860549" to="1339697075#1" type="passenger"/>
    <trip id="168" depart="144.64" from="-770860548#1" to="-351672100#4" type="passenger"/>
    <trip id="169" depart="145.50" from="384030401#1" to="1339697074" type="passenger"/>
    <trip id="170" depart="146.36" from="770860565" to="821457682#0" type="passenger"/>
    <trip id="171" depart="147.22" from="-651817398#4" to="428544127" type="passenger"/>
    <trip id="172" depart="148.08" from="-315658884#2" to="-315658884#3" type="passenger"/>
    <trip id="173" depart="148.94" from="-315658897#2" to="318747848#7" type="passenger"/>
    <trip id="174" depart="149.80" from="-651817398#4" to="315658884#3" type="passenger"/>
    <trip id="175" depart="150.66" from="-651817398#1" to="-712288152#1" type="passenger"/>
    <trip id="176" depart="151.53" from="-770860548#2" to="-464763971" type="passenger"/>
    <trip id="177" depart="152.39" from="-315658884#3" to="318747848#6" type="passenger"/>
    <trip id="178" depart="153.25" from="318747848#2" to="777881144#1" type="passenger"/>
    <trip id="179" depart="154.11" from="-318747848#6" to="1339697075#1" type="passenger"/>
    <trip id="180" depart="154.97" from="773060732#3" to="-37403486#2" type="passenger"/>
    <trip id="181" depart="155.83" from="619147739#1" to="619147739#6" type="passenger"/>
    <trip id="182" depart="156.69" from="770860548#0" to="955312947" type="passenger"/>
    <trip id="183" depart="157.55" from="619147739#5" to="318747848#4" type="passenger"/>
    <trip id="184" depart="158.41" from="78628775#2" to="318747848#2" type="passenger"/>
    <trip id="185" depart="159.27" from="770860549" to="-315658897#0" type="passenger"/>
    <trip id="186" depart="160.13" from="78628775#0" to="384030395" type="passenger"/>
    <trip id="187" depart="161.00" from="777881144#0" to="-384030401#0" type="passenger"/>
    <trip id="188" depart="161.86" from="-315658897#1" to="315658884#2" type="passenger"/>
    <trip id="189" depart="162.72" from="318747848#6" to="619147739#6" type="passenger"/>
    <trip id="190" depart="163.58" from="333557072#1" to="955312947" type="passenger"/>
    <trip id="191" depart="164.44" from="351672100#4" to="1339697075#1" type="passenger"/>
    <trip id="192" depart="165.30" from="78628775#0" to="333557072#3" type="passenger"/>
    <trip id="193" depart="166.16" from="-318747848#2" to="-1339655670" type="passenger"/>
    <trip id="194" depart="167.02" from="770860548#1" to="821457682#1" type="passenger"/>
    <trip id="195" depart="167.88" from="-651817398#2" to="1339697075#5" type="passenger"/>
    <trip id="196" depart="168.74" from="1339655667#1" to="-384030401#0" type="passenger"/>
    <trip id="197" depart="169.60" from="318747848#6" to="619147739#5" type="passenger"/>
    <trip id="198" depart="170.47" from="78628775#2" to="-464763971" type="passenger"/>
    <trip id="199" depart="171.33" from="-315658897#0" to="712288152#1" type="passenger"/>
    <trip id="200" depart="172.19" from="773060732#4" to="-318747848#4" type="passenger"/>
    <trip id="201" depart="173.05" from="-712288152#2" to="1339655667#1" type="passenger"/>
    <trip id="202" depart="173.91" from="1339697076#0" to="1339697076#0" type="passenger"/>
    <trip id="203" depart="174.77" from="-651817398#4" to="-712288152#0" type="passenger"/>
    <trip id="204" depart="175.63" from="333557072#2" to="315658896#1" type="passenger"/>
    <trip id="205" depart="176.49" from="315658897#1" to="-351672100#4" type="passenger"/>
    <trip id="206" depart="177.35" from="315658896#1" to="712288152#2" type="passenger"/>
    <trip id="207" depart="178.21" from="-651817398#1" to="-351672100#2" type="passenger"/>
    <trip id="208" depart="179.08" from="-651817398#2" to="-712288152#0" type="passenger"/>
    <trip id="209" depart="179.94" from="78628770#1" to="379943753#1" type="passenger"/>
    <trip id="210" depart="180.80" from="-770860565" to="318747848#3" type="passenger"/>
    <trip id="211" depart="181.66" from="318747848#2" to="318747848#4" type="passenger"/>
    <trip id="212" depart="182.52" from="-770860548#2" to="619147739#5" type="passenger"/>
    <trip id="213" depart="183.38" from="770860548#1" to="1339697075#1" type="passenger"/>
    <trip id="214" depart="184.24" from="-770860548#2" to="-1339655670" type="passenger"/>
    <trip id="215" depart="185.10" from="770860549" to="-1339655670" type="passenger"/>
    <trip id="216" depart="185.96" from="619147739#0" to="-464763971" type="passenger"/>
    <trip id="217" depart="186.82" from="318747848#6" to="318747848#5" type="passenger"/>
    <trip id="218" depart="187.68" from="315658884#1" to="-351672100#0" type="passenger"/>
    <trip id="219" depart="188.55" from="-318747848#4" to="379943755#1" type="passenger"/>
    <trip id="220" depart="189.41" from="379943753#0" to="712288152#2" type="passenger"/>
    <trip id="221" depart="190.27" from="773060732#1" to="315658897#0" type="passenger"/>
    <trip id="222" depart="191.13" from="318747848#4" to="777881147#1" type="passenger"/>
    <trip id="223" depart="191.99" from="333557072#2" to="-351672100#4" type="passenger"/>
    <trip id="224" depart="192.85" from="-651817398#1" to="-351672100#4" type="passenger"/>
    <trip id="225" depart="193.71" from="821457682#1" to="955312947" type="passenger"/>
    <trip id="226" depart="194.57" from="318747848#7" to="315658896#3" type="passenger"/>
    <trip id="227" depart="195.43" from="-770860549" to="78628770#1" type="passenger"/>
    <trip id="228" depart="196.29" from="773060732#2" to="955312947" type="passenger"/>
    <trip id="229" depart="197.15" from="318747848#6" to="-318747848#6" type="passenger"/>
    <trip id="230" depart="198.02" from="619147739#3" to="-315658884#1" type="passenger"/>
    <trip id="231" depart="198.88" from="315658896#2" to="-318747848#2" type="passenger"/>
    <trip id="232" depart="199.74" from="821457682#1" to="-318747848#6" type="passenger"/>
    <trip id="233" depart="200.60" from="-651817398#3" to="-384030401#0" type="passenger"/>
    <trip id="234" depart="201.46" from="770860548#1" to="78628775#2" type="passenger"/>
    <trip id="235" depart="202.32" from="773060732#1" to="-315658896#2" type="passenger"/>
    <trip id="236" depart="203.18" from="770860565" to="-318747848#4" type="passenger"/>
    <trip id="237" depart="204.04" from="619147739#0" to="778973690" type="passenger"/>
    <trip id="238" depart="204.90" from="619147739#3" to="315658884#4" type="passenger"/>
    <trip id="239" depart="205.76" from="-651817398#1" to="619147739#4" type="passenger"/>
    <trip id="240" depart="206.63" from="770860549" to="1339655667#0" type="passenger"/>
    <trip id="241" depart="207.49" from="37403486#1" to="37403486#1" type="passenger"/>
    <trip id="242" depart="208.35" from="-318747848#3" to="428544127" type="passenger"/>
    <trip id="243" depart="209.21" from="351672100#2" to="-384030401#0" type="passenger"/>
    <trip id="244" depart="210.07" from="318747848#2" to="384030395" type="passenger"/>
    <trip id="245" depart="210.93" from="619147739#1" to="379943755#1" type="passenger"/>
    <trip id="246" depart="211.79" from="78628775#2" to="1339697076#1" type="passenger"/>
    <trip id="247" depart="212.65" from="379943755#1" to="-1339655670" type="passenger"/>
    <trip id="248" depart="213.51" from="318747848#5" to="-315658884#4" type="passenger"/>
    <trip id="249" depart="214.37" from="315658897#0" to="-315658884#1" type="passenger"/>
    <trip id="250" depart="215.23" from="712288152#0" to="-464763971" type="passenger"/>
    <trip id="251" depart="216.10" from="-318747848#7" to="-384030401#1" type="passenger"/>
    <trip id="252" depart="216.96" from="351672100#1" to="-464763971" type="passenger"/>
    <trip id="253" depart="217.82" from="-318747848#5" to="777881147#1" type="passenger"/>
    <trip id="254" depart="218.68" from="78628770#1" to="-351672100#0" type="passenger"/>
    <trip id="255" depart="219.54" from="-651817398#4" to="318747848#3" type="passenger"/>
    <trip id="256" depart="220.40" from="770860549" to="333557072#5" type="passenger"/>
    <trip id="257" depart="221.26" from="315658896#1" to="-315658897#1" type="passenger"/>
    <trip id="258" depart="222.12" from="-651817398#2" to="777881145" type="passenger"/>
    <trip id="259" depart="222.98" from="-318747848#7" to="315658896#1" type="passenger"/>
    <trip id="260" depart="223.84" from="-651817398#5" to="619147739#1" type="passenger"/>
    <trip id="261" depart="224.70" from="315658884#1" to="-37403486#2" type="passenger"/>
    <trip id="262" depart="225.57" from="770860548#1" to="1339697076#1" type="passenger"/>
    <trip id="263" depart="226.43" from="315658884#4" to="-37403486#1" type="passenger"/>
    <trip id="264" depart="227.29" from="-315658896#2" to="-315658884#2" type="passenger"/>
    <trip id="265" depart="228.15" from="-770860565" to="1339697075#6" type="passenger"/>
    <trip id="266" depart="229.01" from="619147739#3" to="315658884#4" type="passenger"/>
    <trip id="267" depart="229.87" from="-651817398#0" to="-318747848#6" type="passenger"/>
    <trip id="268" depart="230.73" from="315658884#3" to="-351672100#2" type="passenger"/>
    <trip id="269" depart="231.59" from="-315658896#2" to="955312947" type="passenger"/>
    <trip id="270" depart="232.45" from="619147739#3" to="428544127" type="passenger"/>
    <trip id="271" depart="233.31" from="318747848#7" to="315658897#0" type="passenger"/>
    <trip id="272" depart="234.18" from="712288152#2" to="379943753#0" type="passenger"/>
    <trip id="273" depart="235.04" from="315658897#0" to="-318747848#6" type="passenger"/>
    <trip id="274" depart="235.90" from="-318747848#6" to="-315658884#3" type="passenger"/>
    <trip id="275" depart="236.76" from="770860548#1" to="778973690" type="passenger"/>
    <trip id="276" depart="237.62" from="770860548#0" to="955312947" type="passenger"/>
    <trip id="277" depart="238.48" from="-318747848#4" to="379943753#0" type="passenger"/>
    <trip id="278" depart="239.34" from="619147739#0" to="379943753#1" type="passenger"/>
    <trip id="279" depart="240.20" from="-384030395" to="1339697074" type="passenger"/>
    <trip id="280" depart="241.06" from="315658884#2" to="777881145" type="passenger"/>
    <trip id="281" depart="241.92" from="773060732#3" to="315658896#1" type="passenger"/>
    <trip id="282" depart="242.78" from="315658896#2" to="-384030401#0" type="passenger"/>
    <trip id="283" depart="243.65" from="333557072#3" to="-384030401#0" type="passenger"/>
    <trip id="284" depart="244.51" from="318747848#3" to="315658897#2" type="passenger"/>
    <trip id="285" depart="245.37" from="-770860548#1" to="-351672100#4" type="passenger"/>
    <trip id="286" depart="246.23" from="333557072#1" to="379943755#1" type="passenger"/>
    <trip id="287" depart="247.09" from="333557072#0" to="1339697076#1" type="passenger"/>
    <trip id="288" depart="247.95" from="315658884#1" to="1339655667#0" type="passenger"/>
    <trip id="289" depart="248.81" from="333557072#0" to="777881147#1" type="passenger"/>
    <trip id="290" depart="249.67" from="770860565" to="315658896#2" type="passenger"/>
    <trip id="291" depart="250.53" from="318747848#6" to="1339697076#0" type="passenger"/>
    <trip id="292" depart="251.39" from="78628775#1" to="-351672100#4" type="passenger"/>
    <trip id="293" depart="252.25" from="619147739#3" to="315658897#0" type="passenger"/>
    <trip id="294" depart="253.12" from="78628775#1" to="-651818430" type="passenger"/>
    <trip id="295" depart="253.98" from="-315658897#0" to="-37403486#1" type="passenger"/>
    <trip id="296" depart="254.84" from="315658896#1" to="1339697076#1" type="passenger"/>
    <trip id="297" depart="255.70" from="-770860549" to="428544127" type="passenger"/>
    <trip id="298" depart="256.56" from="712288152#0" to="1339697075#5" type="passenger"/>
    <trip id="299" depart="257.42" from="78628775#1" to="1339697075#3" type="passenger"/>
    <trip id="300" depart="258.28" from="-315658897#2" to="1339697075#2" type="passenger"/>
    <trip id="301" depart="259.14" from="773060732#0" to="-318747848#6" type="passenger"/>
    <trip id="302" depart="260.00" from="333557072#3" to="315658896#3" type="passenger"/>
    <trip id="303" depart="260.86" from="-770860548#1" to="777881145" type="passenger"/>
    <trip id="304" depart="261.73" from="318747848#6" to="1339697074" type="passenger"/>
    <trip id="305" depart="262.59" from="333557072#0" to="821457682#0" type="passenger"/>
    <trip id="306" depart="263.45" from="1339697075#6" to="-464763971" type="passenger"/>
    <trip id="307" depart="264.31" from="315658884#3" to="315658896#3" type="passenger"/>
    <trip id="308" depart="265.17" from="-315658884#4" to="-1339655670" type="passenger"/>
    <trip id="309" depart="266.03" from="777881144#0" to="1339697075#6" type="passenger"/>
    <trip id="310" depart="266.89" from="384030401#0" to="1339697075#1" type="passenger"/>
    <trip id="311" depart="267.75" from="315658884#3" to="778973690" type="passenger"/>
    <trip id="312" depart="268.61" from="315658884#4" to="315658897#1" type="passenger"/>
    <trip id="313" depart="269.47" from="318747848#7" to="778973690" type="passenger"/>
    <trip id="314" depart="270.33" from="333557072#0" to="333557072#5" type="passenger"/>
    <trip id="315" depart="271.20" from="379943753#1" to="384030395" type="passenger"/>
    <trip id="316" depart="272.06" from="-770860549" to="-318747848#2" type="passenger"/>
    <trip id="317" depart="272.92" from="-315658897#2" to="-315658884#2" type="passenger"/>
    <trip id="318" depart="273.78" from="333557072#1" to="770860549" type="passenger"/>
    <trip id="319" depart="274.64" from="333557072#3" to="318747848#6" type="passenger"/>
    <trip id="320" depart="275.50" from="333557072#3" to="315658896#2" type="passenger"/>
    <trip id="321" depart="276.36" from="-770860548#1" to="619147739#5" type="passenger"/>
    <trip id="322" depart="277.22" from="318747848#6" to="-464763971" type="passenger"/>
    <trip id="323" depart="278.08" from="-651817398#2" to="-315658884#4" type="passenger"/>
    <trip id="324" depart="278.94" from="-770860565" to="78628775#2" type="passenger"/>