<?xml version="1.0" encoding="UTF-8"?>

<!-- generated on 2026-04-17 02:50:36.216748 by Eclipse SUMO randomTrips.py v1.26.0
<configuration>
    <net-file value="/Users/junlee/Desktop/2026-1/js/result/tradeoff_pet_top12_seed12_60min_20260417_024953/sumo_nets/cw_6213/network.net.xml"/>
    <output-trip-file value="/Users/junlee/Desktop/2026-1/js/result/tradeoff_pet_top12_seed12_60min_20260417_024953/sumo_nets/cw_6213/routes_seed52.trips.xml"/>
    <route-file value="/Users/junlee/Desktop/2026-1/js/result/tradeoff_pet_top12_seed12_60min_20260417_024953/sumo_nets/cw_6213/routes_seed52.rou.xml"/>
    <vehicle-class value="passenger"/>
    <seed value="52"/>
    <period value="0.8090462212385692"/>
</configuration>
-->

<routes xmlns:xsi="http://www.w3.org/2001/XMLSchema-instance" xsi:noNamespaceSchemaLocation="http://sumo.dlr.de/xsd/routes_file.xsd">
    <vType id="passenger" vClass="passenger"/>
    <trip id="0" depart="0.00" from="78628775#2" to="-315658896#2" type="passenger"/>
    <trip id="1" depart="0.81" from="619147739#2" to="315658896#3" type="passenger"/>
    <trip id="2" depart="1.62" from="773060732#4" to="-351672100#4" type="passenger"/>
    <trip id="3" depart="2.43" from="821457682#1" to="1339697076#0" type="passenger"/>
    <trip id="4" depart="3.24" from="-315658897#0" to="-37403486#1" type="passenger"/>
    <trip id="5" depart="4.05" from="-651817398#2" to="-712288152#1" type="passenger"/>
    <trip id="6" depart="4.85" from="773060732#1" to="778973690" type="passenger"/>
    <trip id="7" depart="5.66" from="333557072#2" to="379943755#1" type="passenger"/>
    <trip id="8" depart="6.47" from="773060732#0" to="318747848#5" type="passenger"/>
    <trip id="9" depart="7.28" from="318747848#4" to="-37403486#2" type="passenger"/>
    <trip id="10" depart="8.09" from="-318747848#2" to="-384030401#0" type="passenger"/>
    <trip id="11" depart="8.90" from="379943753#1" to="315658884#1" type="passenger"/>
    <trip id="12" depart="9.71" from="-315658884#4" to="-1339655670" type="passenger"/>
    <trip id="13" depart="10.52" from="379943753#1" to="318747848#3" type="passenger"/>
    <trip id="14" depart="11.33" from="315658884#3" to="-37403486#1" type="passenger"/>
    <trip id="15" depart="12.14" from="-318747848#6" to="-37403486#2" type="passenger"/>
    <trip id="16" depart="12.94" from="-770860549" to="318747848#6" type="passenger"/>
    <trip id="17" depart="13.75" from="318747848#4" to="379943755#1" type="passenger"/>
    <trip id="18" depart="14.56" from="-315658897#1" to="379943753#1" type="passenger"/>
    <trip id="19" depart="15.37" from="773060732#2" to="1339697075#2" type="passenger"/>
    <trip id="20" depart="16.18" from="-315658897#1" to="-315658884#4" type="passenger"/>
    <trip id="21" depart="16.99" from="318747848#3" to="-351672100#2" type="passenger"/>
    <trip id="22" depart="17.80" from="315658897#1" to="379943755#1" type="passenger"/>
    <trip id="23" depart="18.61" from="-315658896#2" to="318747848#5" type="passenger"/>
    <trip id="24" depart="19.42" from="-778973690" to="-464763971" type="passenger"/>
    <trip id="25" depart="20.23" from="-651817398#5" to="712288152#2" type="passenger"/>
    <trip id="26" depart="21.04" from="-770860548#1" to="-37403486#1" type="passenger"/>
    <trip id="27" depart="21.84" from="-651817398#1" to="428544127" type="passenger"/>
    <trip id="28" depart="22.65" from="-778973690" to="-384030401#0" type="passenger"/>
    <trip id="29" depart="23.46" from="379943753#1" to="315658897#2" type="passenger"/>
    <trip id="30" depart="24.27" from="777881144#0" to="-318747848#6" type="passenger"/>
    <trip id="31" depart="25.08" from="-315658897#0" to="619147739#3" type="passenger"/>
    <trip id="32" depart="25.89" from="-651817398#4" to="-318747848#6" type="passenger"/>
    <trip id="33" depart="26.70" from="-315658896#3" to="318747848#3" type="passenger"/>
    <trip id="34" depart="27.51" from="78628775#1" to="-318747848#7" type="passenger"/>
    <trip id="35" depart="28.32" from="-315658897#1" to="1339697076#0" type="passenger"/>
    <trip id="36" depart="29.13" from="379943753#0" to="-318747848#5" type="passenger"/>
    <trip id="37" depart="29.93" from="821457682#0" to="-770860548#1" type="passenger"/>
    <trip id="38" depart="30.74" from="-770860549" to="315658897#1" type="passenger"/>
    <trip id="39" depart="31.55" from="318747848#6" to="777881144#1" type="passenger"/>
    <trip id="40" depart="32.36" from="619147739#1" to="-37403486#2" type="passenger"/>
    <trip id="41" depart="33.17" from="315658884#1" to="1339655667#0" type="passenger"/>
    <trip id="42" depart="33.98" from="777881144#0" to="315658896#1" type="passenger"/>
    <trip id="43" depart="34.79" from="318747848#5" to="315658896#1" type="passenger"/>
    <trip id="44" depart="35.60" from="-770860549" to="777881147#1" type="passenger"/>
    <trip id="45" depart="36.41" from="-315658884#2" to="-318747848#3" type="passenger"/>
    <trip id="46" depart="37.22" from="-651817398#0" to="1339697075#4" type="passenger"/>
    <trip id="47" depart="38.03" from="78628775#0" to="778973690" type="passenger"/>
    <trip id="48" depart="38.83" from="333557072#1" to="821457682#1" type="passenger"/>
    <trip id="49" depart="39.64" from="770860549" to="821457682#0" type="passenger"/>
    <trip id="50" depart="40.45" from="333557072#3" to="-318747848#5" type="passenger"/>
    <trip id="51" depart="41.26" from="333557072#1" to="-315658896#1" type="passenger"/>
    <trip id="52" depart="42.07" from="318747848#7" to="-315658897#1" type="passenger"/>
    <trip id="53" depart="42.88" from="770860548#0" to="-315658884#1" type="passenger"/>
    <trip id="54" depart="43.69" from="773060732#3" to="-315658897#0" type="passenger"/>
    <trip id="55" depart="44.50" from="619147739#1" to="318747848#3" type="passenger"/>
    <trip id="56" depart="45.31" from="315658896#1" to="-351672100#4" type="passenger"/>
    <trip id="57" depart="46.12" from="333557072#2" to="315658896#1" type="passenger"/>
    <trip id="58" depart="46.92" from="-955312947" to="315658896#1" type="passenger"/>
    <trip id="59" depart="47.73" from="315658884#3" to="428544127" type="passenger"/>
    <trip id="60" depart="48.54" from="78628775#2" to="619147739#5" type="passenger"/>
    <trip id="61" depart="49.35" from="-315658884#1" to="619147739#6" type="passenger"/>
    <trip id="62" depart="50.16" from="-315658884#4" to="-315658884#1" type="passenger"/>
    <trip id="63" depart="50.97" from="-315658884#2" to="-318747848#6" type="passenger"/>
    <trip id="64" depart="51.78" from="-651817398#0" to="315658884#2" type="passenger"/>
    <trip id="65" depart="52.59" from="619147739#2" to="-318747848#6" type="passenger"/>
    <trip id="66" depart="53.40" from="773060732#1" to="-37403486#1" type="passenger"/>
    <trip id="67" depart="54.21" from="333557072#3" to="778973690" type="passenger"/>
    <trip id="68" depart="55.02" from="712288152#1" to="315658896#1" type="passenger"/>
    <trip id="69" depart="55.82" from="351672100#0" to="-464763971" type="passenger"/>
    <trip id="70" depart="56.63" from="379943755#1" to="-351672100#1" type="passenger"/>
    <trip id="71" depart="57.44" from="-318747848#4" to="1339697075#6" type="passenger"/>
    <trip id="72" depart="58.25" from="-651817398#3" to="777881147#1" type="passenger"/>
    <trip id="73" depart="59.06" from="712288152#2" to="-315658897#0" type="passenger"/>
    <trip id="74" depart="59.87" from="-651817398#4" to="-712288152#0" type="passenger"/>
    <trip id="75" depart="60.68" from="-318747848#7" to="318747848#6" type="passenger"/>
    <trip id="76" depart="61.49" from="619147739#1" to="315658897#0" type="passenger"/>
    <trip id="77" depart="62.30" from="318747848#2" to="-37403486#1" type="passenger"/>
    <trip id="78" depart="63.11" from="318747848#4" to="315658897#1" type="passenger"/>
    <trip id="79" depart="63.91" from="821457682#0" to="315658896#3" type="passenger"/>
    <trip id="80" depart="64.72" from="821457682#0" to="777881147#1" type="passenger"/>
    <trip id="81" depart="65.53" from="333557072#0" to="778973690" type="passenger"/>
    <trip id="82" depart="66.34" from="770860548#1" to="315658896#2" type="passenger"/>
    <trip id="83" depart="67.15" from="379943753#1" to="619147739#6" type="passenger"/>
    <trip id="84" depart="67.96" from="777881144#0" to="-315658884#4" type="passenger"/>
    <trip id="85" depart="68.77" from="78628775#0" to="-351672100#1" type="passenger"/>
    <trip id="86" depart="69.58" from="-778973690" to="1339697075#1" type="passenger"/>
    <trip id="87" depart="70.39" from="619147739#5" to="379943755#1" type="passenger"/>
    <trip id="88" depart="71.20" from="-315658896#2" to="315658896#2" type="passenger"/>
    <trip id="89" depart="72.01" from="1339655667#1" to="-351672100#2" type="passenger"/>
    <trip id="90" depart="72.81" from="-315658884#4" to="315658896#2" type="passenger"/>
    <trip id="91" depart="73.62" from="712288152#0" to="955312947" type="passenger"/>
    <trip id="92" depart="74.43" from="712288152#2" to="1339697075#3" type="passenger"/>
    <trip id="93" depart="75.24" from="-770860548#1" to="318747848#2" type="passenger"/>
    <trip id="94" depart="76.05" from="-318747848#2" to="315658896#3" type="passenger"/>
    <trip id="95" depart="76.86" from="78628775#2" to="384030395" type="passenger"/>
    <trip id="96" depart="77.67" from="379943753#1" to="1339655667#0" type="passenger"/>
    <trip id="97" depart="78.48" from="773060732#0" to="318747848#2" type="passenger"/>
    <trip id="98" depart="79.29" from="-351672100#2" to="-351672100#0" type="passenger"/>
    <trip id="99" depart="80.10" from="-315658896#2" to="777881145" type="passenger"/>
    <trip id="100" depart="80.90" from="777881144#0" to="315658884#4" type="passenger"/>
    <trip id="101" depart="81.71" from="773060732#4" to="619147739#3" type="passenger"/>
    <trip id="102" depart="82.52" from="619147739#2" to="379943753#0" type="passenger"/>
    <trip id="103" depart="83.33" from="619147739#3" to="-318747848#2" type="passenger"/>
    <trip id="104" depart="84.14" from="379943755#1" to="-315658896#2" type="passenger"/>
    <trip id="105" depart="84.95" from="-315658896#2" to="379943753#0" type="passenger"/>
    <trip id="106" depart="85.76" from="379943753#1" to="-318747848#2" type="passenger"/>
    <trip id="107" depart="86.57" from="-770860565" to="-770860548#0" type="passenger"/>
    <trip id="108" depart="87.38" from="315658884#1" to="777881144#1" type="passenger"/>
    <trip id="109" depart="88.19" from="821457682#1" to="318747848#4" type="passenger"/>
    <trip id="110" depart="89.00" from="-318747848#2" to="619147739#6" type="passenger"/>
    <trip id="111" depart="89.80" from="619147739#5" to="-384030401#1" type="passenger"/>
    <trip id="112" depart="90.61" from="-315658884#3" to="-351672100#4" type="passenger"/>
    <trip id="113" depart="91.42" from="773060732#3" to="315658897#1" type="passenger"/>
    <trip id="114" depart="92.23" from="770860548#0" to="777881147#1" type="passenger"/>
    <trip id="115" depart="93.04" from="821457682#0" to="318747848#2" type="passenger"/>
    <trip id="116" depart="93.85" from="-651817398#5" to="379943755#1" type="passenger"/>
    <trip id="117" depart="94.66" from="315658884#3" to="318747848#7" type="passenger"/>
    <trip id="118" depart="95.47" from="619147739#3" to="315658897#1" type="passenger"/>
    <trip id="119" depart="96.28" from="-315658884#4" to="-384030401#0" type="passenger"/>
    <trip id="120" depart="97.09" from="1339697075#1" to="1339697075#2" type="passenger"/>
    <trip id="121" depart="97.89" from="333557072#2" to="315658896#1" type="passenger"/>
    <trip id="122" depart="98.70" from="315658884#1" to="955312947" type="passenger"/>
    <trip id="123" depart="99.51" from="-315658884#4" to="619147739#5" type="passenger"/>
    <trip id="124" depart="100.32" from="-770860548#2" to="1339697074" type="passenger"/>
    <trip id="125" depart="101.13" from="-315658896#3" to="379943753#0" type="passenger"/>
    <trip id="126" depart="101.94" from="-712288152#1" to="1339697075#6" type="passenger"/>
    <trip id="127" depart="102.75" from="-770860548#2" to="-770860548#1" type="passenger"/>
    <trip id="128" depart="103.56" from="-318747848#2" to="318747848#4" type="passenger"/>
    <trip id="129" depart="104.37" from="78628775#0" to="770860565" type="passenger"/>
    <trip id="130" depart="105.18" from="78628775#2" to="-351672100#1" type="passenger"/>
    <trip id="131" depart="105.99" from="821457682#0" to="1339697076#0" type="passenger"/>
    <trip id="132" depart="106.79" from="315658884#1" to="1339697075#6" type="passenger"/>
    <trip id="133" depart="107.60" from="379943755#1" to="-315658884#4" type="passenger"/>
    <trip id="134" depart="108.41" from="-318747848#2" to="1339655667#1" type="passenger"/>
    <trip id="135" depart="109.22" from="333557072#0" to="315658884#2" type="passenger"/>
    <trip id="136" depart="110.03" from="379943753#0" to="315658897#2" type="passenger"/>
    <trip id="137" depart="110.84" from="-318747848#3" to="315658884#4" type="passenger"/>
    <trip id="138" depart="111.65" from="-651817398#5" to="1339697076#0" type="passenger"/>
    <trip id="139" depart="112.46" from="712288152#2" to="777881145" type="passenger"/>
    <trip id="140" depart="113.27" from="773060732#2" to="1339697075#1" type="passenger"/>
    <trip id="141" depart="114.08" from="78628775#2" to="1339697075#2" type="passenger"/>
    <trip id="142" depart="114.88" from="333557072#3" to="384030395" type="passenger"/>
    <trip id="143" depart="115.69" from="-318747848#6" to="619147739#6" type="passenger"/>
    <trip id="144" depart="116.50" from="-318747848#3" to="777881147#1" type="passenger"/>
    <trip id="145" depart="117.31" from="78628770#1" to="-315658884#3" type="passenger"/>
    <trip id="146" depart="118.12" from="777881144#0" to="379943753#0" type="passenger"/>
    <trip id="147" depart="118.93" from="777881144#0" to="777881144#1" type="passenger"/>
    <trip id="148" depart="119.74" from="-318747848#3" to="379943753#1" type="passenger"/>
    <trip id="149" depart="120.55" from="-318747848#6" to="315658884#2" type="passenger"/>
    <trip id="150" depart="121.36" from="619147739#2" to="-318747848#3" type="passenger"/>
    <trip id="151" depart="122.17" from="318747848#4" to="379943753#1" type="passenger"/>
    <trip id="152" depart="122.98" from="-315658884#4" to="777881145" type="passenger"/>
    <trip id="153" depart="123.78" from="-318747848#4" to="-315658884#3" type="passenger"/>
    <trip id="154" depart="124.59" from="78628775#0" to="78628770#1" type="passenger"/>
    <trip id="155" depart="125.40" from="619147739#2" to="-315658896#1" type="passenger"/>
    <trip id="156" depart="126.21" from="651817398#2" to="651817398#4" type="passenger"/>
    <trip id="157" depart="127.02" from="777881144#0" to="379943753#0" type="passenger"/>
    <trip id="158" depart="127.83" from="-315658897#1" to="-315658884#3" type="passenger"/>
    <trip id="159" depart="128.64" from="619147739#3" to="1339697074" type="passenger"/>
    <trip id="160" depart="129.45" from="78628775#0" to="315658896#1" type="passenger"/>
    <trip id="161" depart="130.26" from="-315658896#2" to="-315658884#4" type="passenger"/>
    <trip id="162" depart="131.07" from="619147739#3" to="-315658896#1" type="passenger"/>
    <trip id="163" depart="131.87" from="619147739#5" to="-351672100#2" type="passenger"/>
    <trip id="164" depart="132.68" from="-712288152#0" to="-37403486#2" type="passenger"/>
    <trip id="165" depart="133.49" from="315658897#0" to="315658896#2" type="passenger"/>
    <trip id="166" depart="134.30" from="-651817398#2" to="1339697074" type="passenger"/>
    <trip id="167" depart="135.11" from="-37403486#2" to="-1339655670" type="passenger"/>
    <trip id="168" depart="135.92" from="773060732#4" to="1339697075#2" type="passenger"/>
    <trip id="169" depart="136.73" from="-315658897#2" to="1339697076#0" type="passenger"/>
    <trip id="170" depart="137.54" from="318747848#6" to="-315658896#1" type="passenger"/>
    <trip id="171" depart="138.35" from="1339697075#2" to="1339697075#5" type="passenger"/>
    <trip id="172" depart="139.16" from="-651817398#0" to="315658884#2" type="passenger"/>
    <trip id="173" depart="139.96" from="-318747848#3" to="-318747848#4" type="passenger"/>
    <trip id="174" depart="140.77" from="-318747848#5" to="-464763971" type="passenger"/>
    <trip id="175" depart="141.58" from="318747848#5" to="315658896#2" type="passenger"/>
    <trip id="176" depart="142.39" from="-770860548#2" to="315658897#0" type="passenger"/>
    <trip id="177" depart="143.20" from="333557072#0" to="-315658896#1" type="passenger"/>
    <trip id="178" depart="144.01" from="318747848#7" to="318747848#5" type="passenger"/>
    <trip id="179" depart="144.82" from="-315658884#2" to="619147739#4" type="passenger"/>
    <trip id="180" depart="145.63" from="318747848#2" to="-315658897#1" type="passenger"/>
    <trip id="181" depart="146.44" from="333557072#0" to="619147739#4" type="passenger"/>
    <trip id="182" depart="147.25" from="619147739#0" to="-351672100#2" type="passenger"/>
    <trip id="183" depart="148.06" from="770860565" to="712288152#1" type="passenger"/>
    <trip id="184" depart="148.86" from="821457682#1" to="-318747848#5" type="passenger"/>
    <trip id="185" depart="149.67" from="-955312947" to="-351672100#1" type="passenger"/>
    <trip id="186" depart="150.48" from="770860548#1" to="-315658884#2" type="passenger"/>
    <trip id="187" depart="151.29" from="773060732#3" to="1339697075#6" type="passenger"/>
    <trip id="188" depart="152.10" from="821457682#0" to="315658896#1" type="passenger"/>
    <trip id="189" depart="152.91" from="-318747848#7" to="379943753#1" type="passenger"/>
    <trip id="190" depart="153.72" from="821457682#1" to="777881144#1" type="passenger"/>
    <trip id="191" depart="154.53" from="619147739#4" to="-315658884#1" type="passenger"/>
    <trip id="192" depart="155.34" from="-315658897#2" to="777881144#1" type="passenger"/>
    <trip id="193" depart="156.15" from="770860548#1" to="318747848#7" type="passenger"/>
    <trip id="194" depart="156.95" from="315658897#0" to="315658884#3" type="passenger"/>
    <trip id="195" depart="157.76" from="318747848#3" to="1339697076#1" type="passenger"/>
    <trip id="196" depart="158.57" from="-351672100#1" to="-351672100#0" type="passenger"/>
    <trip id="197" depart="159.38" from="-318747848#3" to="315658884#4" type="passenger"/>
    <trip id="198" depart="160.19" from="619147739#4" to="315658884#1" type="passenger"/>
    <trip id="199" depart="161.00" from="315658896#1" to="-351672100#4" type="passenger"/>
    <trip id="200" depart="161.81" from="619147739#4" to="1339655667#1" type="passenger"/>
    <trip id="201" depart="162.62" from="-315658884#3" to="-384030401#0" type="passenger"/>
    <trip id="202" depart="163.43" from="-315658897#0" to="712288152#0" type="passenger"/>
    <trip id="203" depart="164.24" from="619147739#3" to="315658897#2" type="passenger"/>
    <trip id="204" depart="165.05" from="318747848#3" to="318747848#7" type="passenger"/>
    <trip id="205" depart="165.85" from="318747848#7" to="-315658884#1" type="passenger"/>
    <trip id="206" depart="166.66" from="-955312947" to="315658896#1" type="passenger"/>
    <trip id="207" depart="167.47" from="-315658897#0" to="619147739#5" type="passenger"/>
    <trip id="208" depart="168.28" from="619147739#3" to="-318747848#2" type="passenger"/>
    <trip id="209" depart="169.09" from="770860565" to="770860565" type="passenger"/>
    <trip id="210" depart="169.90" from="619147739#2" to="1339697075#1" type="passenger"/>
    <trip id="211" depart="170.71" from="318747848#7" to="-315658884#3" type="passenger"/>
    <trip id="212" depart="171.52" from="333557072#1" to="712288152#1" type="passenger"/>
    <trip id="213" depart="172.33" from="821457682#1" to="-351672100#2" type="passenger"/>
    <trip id="214" depart="173.14" from="821457682#0" to="315658897#0" type="passenger"/>
    <trip id="215" depart="173.94" from="-651817398#3" to="318747848#6" type="passenger"/>
    <trip id="216" depart="174.75" from="-318747848#6" to="315658896#1" type="passenger"/>
    <trip id="217" depart="175.56" from="770860548#0" to="619147739#6" type="passenger"/>
    <trip id="218" depart="176.37" from="619147739#4" to="1339697075#5" type="passenger"/>
    <trip id="219" depart="177.18" from="-315658896#3" to="315658884#1" type="passenger"/>
    <trip id="220" depart="177.99" from="-318747848#5" to="379943755#1" type="passenger"/>
    <trip id="221" depart="178.80" from="619147739#3" to="-351672100#0" type="passenger"/>
    <trip id="222" depart="179.61" from="333557072#1" to="333557072#2" type="passenger"/>
    <trip id="223" depart="180.42" from="-770860548#2" to="-315658884#2" type="passenger"/>
    <trip id="224" depart="181.23" from="318747848#6" to="379943753#0" type="passenger"/>
    <trip id="225" depart="182.04" from="-955312947" to="315658884#1" type="passenger"/>
    <trip id="226" depart="182.84" from="-318747848#3" to="-464763971" type="passenger"/>
    <trip id="227" depart="183.65" from="379943753#1" to="-318747848#3" type="passenger"/>
    <trip id="228" depart="184.46" from="315658897#1" to="778973690" type="passenger"/>
    <trip id="229" depart="185.27" from="333557072#2" to="333557072#3" type="passenger"/>
    <trip id="230" depart="186.08" from="384030401#1" to="384030395" type="passenger"/>
    <trip id="231" depart="186.89" from="78628775#1" to="770860548#1" type="passenger"/>
    <trip id="232" depart="187.70" from="-770860565" to="-315658884#3" type="passenger"/>
    <trip id="233" depart="188.51" from="-315658884#3" to="-318747848#3" type="passenger"/>
    <trip id="234" depart="189.32" from="-351672100#1" to="-351672100#0" type="passenger"/>
    <trip id="235" depart="190.13" from="770860548#0" to="-315658897#0" type="passenger"/>
    <trip id="236" depart="190.93" from="315658884#4" to="-315658897#0" type="passenger"/>
    <trip id="237" depart="191.74" from="-770860565" to="770860548#2" type="passenger"/>
    <trip id="238" depart="192.55" from="333557072#0" to="-318747848#2" type="passenger"/>
    <trip id="239" depart="193.36" from="-315658884#1" to="-315658884#2" type="passenger"/>
    <trip id="240" depart="194.17" from="619147739#2" to="619147739#2" type="passenger"/>
    <trip id="241" depart="194.98" from="333557072#0" to="315658884#1" type="passenger"/>
    <trip id="242" depart="195.79" from="-315658897#2" to="-351672100#1" type="passenger"/>
    <trip id="243" depart="196.60" from="-318747848#4" to="712288152#1" type="passenger"/>
    <trip id="244" depart="197.41" from="379943753#1" to="-37403486#2" type="passenger"/>
    <trip id="245" depart="198.22" from="821457682#1" to="-770860548#1" type="passenger"/>
    <trip id="246" depart="199.03" from="1339655667#0" to="-37403486#1" type="passenger"/>
    <trip id="247" depart="199.83" from="-318747848#3" to="955312947" type="passenger"/>
    <trip id="248" depart="200.64" from="315658884#4" to="-315658884#4" type="passenger"/>
    <trip id="249" depart="201.45" from="315658884#2" to="379943753#0" type="passenger"/>
    <trip id="250" depart="202.26" from="78628775#1" to="778973690" type="passenger"/>
    <trip id="251" depart="203.07" from="78628775#2" to="1339655667#0" type="passenger"/>
    <trip id="252" depart="203.88" from="379943753#0" to="-37403486#2" type="passenger"/>
    <trip id="253" depart="204.69" from="318747848#6" to="315658897#2" type="passenger"/>
    <trip id="254" depart="205.50" from="315658897#0" to="-384030401#1" type="passenger"/>
    <trip id="255" depart="206.31" from="-770860565" to="821457682#0" type="passenger"/>
    <trip id="256" depart="207.12" from="-315658896#2" to="-315658884#2" type="passenger"/>
    <trip id="257" depart="207.92" from="773060732#1" to="-351672100#4" type="passenger"/>
    <trip id="258" depart="208.73" from="770860549" to="-315658884#2" type="passenger"/>
    <trip id="259" depart="209.54" from="777881144#0" to="619147739#4" type="passenger"/>
    <trip id="260" depart="210.35" from="619147739#4" to="315658897#0" type="passenger"/>
    <trip id="261" depart="211.16" from="78628770#1" to="-318747848#7" type="passenger"/>
    <trip id="262" depart="211.97" from="-315658897#1" to="-384030401#0" type="passenger"/>
    <trip id="263" depart="212.78" from="333557072#0" to="315658884#2" type="passenger"/>
    <trip id="264" depart="213.59" from="-315658896#3" to="-351672100#2" type="passenger"/>
    <trip id="265" depart="214.40" from="773060732#0" to="-351672100#4" type="passenger"/>
    <trip id="266" depart="215.21" from="773060732#1" to="-37403486#2" type="passenger"/>
    <trip id="267" depart="216.02" from="-651817398#4" to="712288152#0" type="passenger"/>
    <trip id="268" depart="216.82" from="-384030395" to="-1339655670" type="passenger"/>
    <trip id="269" depart="217.63" from="821457682#0" to="428544127" type="passenger"/>
    <trip id="270" depart="218.44" from="619147739#0" to="651817398#3" type="passenger"/>
    <trip id="271" depart="219.25" from="-315658884#2" to="379943753#0" type="passenger"/>
    <trip id="272" depart="220.06" from="619147739#4" to="1339697076#0" type="passenger"/>
    <trip id="273" depart="220.87" from="318747848#4" to="1339655667#0" type="passenger"/>
    <trip id="274" depart="221.68" from="-770860548#1" to="-315658884#1" type="passenger"/>
    <trip id="275" depart="222.49" from="78628770#1" to="315658897#2" type="passenger"/>
    <trip id="276" depart="223.30" from="619147739#4" to="777881145" type="passenger"/>
    <trip id="277" depart="224.11" from="-318747848#4" to="428544127" type="passenger"/>
    <trip id="278" depart="224.91" from="-651817398#2" to="1339697075#3" type="passenger"/>
    <trip id="279" depart="225.72" from="-315658884#3" to="318747848#7" type="passenger"/>
    <trip id="280" depart="226.53" from="384030401#0" to="384030395" type="passenger"/>
    <trip id="281" depart="227.34" from="-770860548#1" to="-315658896#2" type="passenger"/>
    <trip id="282" depart="228.15" from="318747848#2" to="619147739#4" type="passenger"/>
    <trip id="283" depart="228.96" from="-318747848#4" to="1339655667#0" type="passenger"/>
    <trip id="284" depart="229.77" from="-318747848#4" to="-384030401#0" type="passenger"/>
    <trip id="285" depart="230.58" from="-315658884#1" to="315658896#1" type="passenger"/>
    <trip id="286" depart="231.39" from="619147739#2" to="318747848#7" type="passenger"/>
    <trip id="287" depart="232.20" from="78628775#2" to="318747848#3" type="passenger"/>
    <trip id="288" depart="233.01" from="770860548#0" to="315658896#2" type="passenger"/>
    <trip id="289" depart="233.81" from="-770860549" to="-770860548#1" type="passenger"/>
    <trip id="290" depart="234.62" from="318747848#3" to="318747848#7" type="passenger"/>
    <trip id="291" depart="235.43" from="333557072#0" to="318747848#2" type="passenger"/>
    <trip id="292" depart="236.24" from="-651817398#3" to="-712288152#1" type="passenger"/>
    <trip id="293" depart="237.05" from="770860549" to="777881144#1" type="passenger"/>
    <trip id="294" depart="237.86" from="-651817398#2" to="-1339655670" type="passenger"/>
    <trip id="295" depart="238.67" from="333557072#1" to="318747848#3" type="passenger"/>
    <trip id="296" depart="239.48" from="-651817398#4" to="379943753#0" type="passenger"/>
    <trip id="297" depart="240.29" from="78628775#2" to="318747848#7" type="passenger"/>
    <trip id="298" depart="241.10" from="-315658897#1" to="-318747848#5" type="passenger"/>
    <trip id="299" depart="241.90" from="318747848#3" to="315658884#1" type="passenger"/>
    <trip id="300" depart="242.71" from="379943753#1" to="379943755#1" type="passenger"/>
    <trip id="301" depart="243.52" from="318747848#7" to="379943753#1" type="passenger"/>
    <trip id="302" depart="244.33" from="773060732#3" to="379943753#1" type="passenger"/>
    <trip id="303" depart="245.14" from="318747848#3" to="-315658896#2" type="passenger"/>
    <trip id="304" depart="245.95" from="-315658897#0" to="1339697075#6" type="passenger"/>
    <trip id="305" depart="246.76" from="-955312947" to="315658897#2" type="passenger"/>
    <trip id="306" depart="247.57" from="318747848#3" to="318747848#7" type="passenger"/>
    <trip id="307" depart="248.38" from="-651817398#5" to="712288152#0" type="passenger"/>
    <trip id="308" depart="249.19" from="-770860548#2" to="78628775#2" type="passenger"/>
    <trip id="309" depart="250.00" from="-315658897#1" to="1339697075#6" type="passenger"/>
    <trip id="310" depart="250.80" from="-318747848#7" to="315658884#3" type="passenger"/>
    <trip id="311" depart="251.61" from="712288152#0" to="-315658896#1" type="passenger"/>
    <trip id="312" depart="252.42" from="770860548#0" to="318747848#6" type="passenger"/>
    <trip id="313" depart="253.23" from="78628775#0" to="-315658884#1" type="passenger"/>
    <trip id="314" depart="254.04" from="-315658897#2" to="315658884#3" type="passenger"/>
    <trip id="315" depart="254.85" from="318747848#2" to="-37403486#2" type="passenger"/>
    <trip id="316" depart="255.66" from="333557072#1" to="1339697074" type="passenger"/>
    <trip id="317" depart="256.47" from="770860548#0" to="821457682#0" type="passenger"/>
    <trip id="318" depart="257.28" from="821457682#0" to="-351672100#4" type="passenger"/>
    <trip id="319" depart="258.09" from="318747848#2" to="318747848#2" type="passenger"/>
    <trip id="320" depart="258.89" from="-770860565" to="-770860548#0" type="passenger"/>
    <trip id="321" depart="259.70" from="-770860549" to="-37403486#2" type="passenger"/>
    <trip id="322" depart="260.51" from="712288152#0" to="-315658884#2" type="passenger"/>
    <trip id="323" depart="261.32" from="318747848#5" to="-318747848#4" type="passenger"/>