<?xml version="1.0" encoding="UTF-8"?>

<!-- generated on 2026-04-17 02:50:33.229072 by Eclipse SUMO randomTrips.py v1.26.0
<configuration>
    <net-file value="/Users/junlee/Desktop/2026-1/js/result/tradeoff_pet_top12_seed12_60min_20260417_024953/sumo_nets/cw_6213/network.net.xml"/>
    <output-trip-file value="/Users/junlee/Desktop/2026-1/js/result/tradeoff_pet_top12_seed12_60min_20260417_024953/sumo_nets/cw_6213/routes_seed49.trips.xml"/>
    <route-file value="/Users/junlee/Desktop/2026-1/js/result/tradeoff_pet_top12_seed12_60min_20260417_024953/sumo_nets/cw_6213/routes_seed49.rou.xml"/>
    <vehicle-class value="passenger"/>
    <seed value="49"/>
    <period value="0.9945894422803364"/>
</configuration>
-->

<routes xmlns:xsi="http://www.w3.org/2001/XMLSchema-instance" xsi:noNamespaceSchemaLocation="http://sumo.dlr.de/xsd/routes_file.xsd">
    <vType id="passenger" vClass="passenger"/>
    <trip id="0" depart="0.00" from="-315658897#0" to="1339697076#0" type="passenger"/>
    <trip id="1" depart="0.99" from="-318747848#4" to="619147739#6" type="passenger"/>
    <trip id="2" depart="1.99" from="318747848#2" to="-315658896#1" type="passenger"/>
    <trip id="3" depart="2.98" from="-315658896#2" to="619147739#4" type="passenger"/>
    <trip id="4" depart="3.98" from="333557072#1" to="1339697075#6" type="passenger"/>
    <trip id="5" depart="4.97" from="-651817398#4" to="-351672100#0" type="passenger"/>
    <trip id="6" depart="5.97" from="1339697076#0" to="1339697075#3" type="passenger"/>
    <trip id="7" depart="6.96" from="-651817398#5" to="315658884#2" type="passenger"/>
    <trip id="8" depart="7.96" from="315658897#1" to="1339697075#3" type="passenger"/>
    <trip id="9" depart="8.95" from="318747848#7" to="318747848#5" type="passenger"/>
    <trip id="10" depart="9.95" from="-315658897#2" to="778973690" type="passenger"/>
    <trip id="11" depart="10.94" from="712288152#2" to="-315658897#0" type="passenger"/>
    <trip id="12" depart="11.94" from="428544127" to="1339697075#3" type="passenger"/>
    <trip id="13" depart="12.93" from="379943755#1" to="315658884#2" type="passenger"/>
    <trip id="14" depart="13.92" from="619147739#1" to="-351672100#4" type="passenger"/>
    <trip id="15" depart="14.92" from="-318747848#3" to="1339697075#6" type="passenger"/>
    <trip id="16" depart="15.91" from="770860565" to="379943753#1" type="passenger"/>
    <trip id="17" depart="16.91" from="-651817398#5" to="777881144#1" type="passenger"/>
    <trip id="18" depart="17.90" from="78628775#0" to="379943755#1" type="passenger"/>
    <trip id="19" depart="18.90" from="315658884#3" to="-318747848#7" type="passenger"/>
    <trip id="20" depart="19.89" from="333557072#1" to="619147739#5" type="passenger"/>
    <trip id="21" depart="20.89" from="318747848#2" to="1339655667#1" type="passenger"/>
    <trip id="22" depart="21.88" from="333557072#1" to="78628775#2" type="passenger"/>
    <trip id="23" depart="22.88" from="78628770#1" to="777881144#1" type="passenger"/>
    <trip id="24" depart="23.87" from="379943753#0" to="318747848#3" type="passenger"/>
    <trip id="25" depart="24.86" from="318747848#5" to="777881144#1" type="passenger"/>
    <trip id="26" depart="25.86" from="-315658884#1" to="-315658884#3" type="passenger"/>
    <trip id="27" depart="26.85" from="-315658897#1" to="315658884#3" type="passenger"/>
    <trip id="28" depart="27.85" from="333557072#0" to="78628770#1" type="passenger"/>
    <trip id="29" depart="28.84" from="619147739#2" to="712288152#0" type="passenger"/>
    <trip id="30" depart="29.84" from="-651817398#5" to="-318747848#6" type="passenger"/>
    <trip id="31" depart="30.83" from="-318747848#5" to="-315658884#4" type="passenger"/>
    <trip id="32" depart="31.83" from="-318747848#6" to="777881144#1" type="passenger"/>
    <trip id="33" depart="32.82" from="619147739#2" to="-315658884#1" type="passenger"/>
    <trip id="34" depart="33.82" from="384030401#0" to="-464763971" type="passenger"/>
    <trip id="35" depart="34.81" from="-318747848#6" to="712288152#1" type="passenger"/>
    <trip id="36" depart="35.81" from="773060732#4" to="-318747848#4" type="passenger"/>
    <trip id="37" depart="36.80" from="-651817398#3" to="-315658896#1" type="passenger"/>
    <trip id="38" depart="37.79" from="-318747848#7" to="1339655667#0" type="passenger"/>
    <trip id="39" depart="38.79" from="333557072#0" to="777881147#1" type="passenger"/>
    <trip id="40" depart="39.78" from="-315658897#0" to="-315658897#0" type="passenger"/>
    <trip id="41" depart="40.78" from="-955312947" to="315658896#1" type="passenger"/>
    <trip id="42" depart="41.77" from="1339655670" to="-384030401#1" type="passenger"/>
    <trip id="43" depart="42.77" from="318747848#7" to="-37403486#2" type="passenger"/>
    <trip id="44" depart="43.76" from="-770860548#1" to="-318747848#3" type="passenger"/>
    <trip id="45" depart="44.76" from="-315658897#0" to="315658884#4" type="passenger"/>
    <trip id="46" depart="45.75" from="773060732#4" to="619147739#5" type="passenger"/>
    <trip id="47" depart="46.75" from="-318747848#6" to="-384030401#0" type="passenger"/>
    <trip id="48" depart="47.74" from="777881144#0" to="1339697075#3" type="passenger"/>
    <trip id="49" depart="48.73" from="773060732#1" to="315658896#3" type="passenger"/>
    <trip id="50" depart="49.73" from="773060732#1" to="315658897#0" type="passenger"/>
    <trip id="51" depart="50.72" from="821457682#0" to="-37403486#2" type="passenger"/>
    <trip id="52" depart="51.72" from="-315658884#4" to="-315658897#1" type="passenger"/>
    <trip id="53" depart="52.71" from="-955312947" to="318747848#3" type="passenger"/>
    <trip id="54" depart="53.71" from="-651817398#0" to="619147739#3" type="passenger"/>
    <trip id="55" depart="54.70" from="318747848#3" to="315658897#1" type="passenger"/>
    <trip id="56" depart="55.70" from="-315658884#4" to="-318747848#3" type="passenger"/>
    <trip id="57" depart="56.69" from="619147739#0" to="712288152#1" type="passenger"/>
    <trip id="58" depart="57.69" from="78628775#1" to="315658897#0" type="passenger"/>
    <trip id="59" depart="58.68" from="-315658896#2" to="315658896#2" type="passenger"/>
    <trip id="60" depart="59.68" from="318747848#4" to="1339697075#2" type="passenger"/>
    <trip id="61" depart="60.67" from="-651817398#4" to="318747848#5" type="passenger"/>
    <trip id="62" depart="61.66" from="-651817398#1" to="-712288152#0" type="passenger"/>
    <trip id="63" depart="62.66" from="-315658884#2" to="315658897#2" type="passenger"/>
    <trip id="64" depart="63.65" from="-955312947" to="619147739#4" type="passenger"/>
    <trip id="65" depart="64.65" from="315658897#0" to="315658884#3" type="passenger"/>
    <trip id="66" depart="65.64" from="318747848#4" to="315658897#2" type="passenger"/>
    <trip id="67" depart="66.64" from="-318747848#7" to="955312947" type="passenger"/>
    <trip id="68" depart="67.63" from="619147739#0" to="1339697075#3" type="passenger"/>
    <trip id="69" depart="68.63" from="-955312947" to="1339697076#0" type="passenger"/>
    <trip id="70" depart="69.62" from="-315658897#1" to="1339655667#0" type="passenger"/>
    <trip id="71" depart="70.62" from="315658884#1" to="318747848#3" type="passenger"/>
    <trip id="72" depart="71.61" from="-651817398#5" to="315658897#0" type="passenger"/>
    <trip id="73" depart="72.61" from="-318747848#3" to="318747848#5" type="passenger"/>
    <trip id="74" depart="73.60" from="770860548#0" to="-464763971" type="passenger"/>
    <trip id="75" depart="74.59" from="773060732#2" to="315658884#1" type="passenger"/>
    <trip id="76" depart="75.59" from="78628770#1" to="-351672100#2" type="passenger"/>
    <trip id="77" depart="76.58" from="-651817398#0" to="-315658884#2" type="passenger"/>
    <trip id="78" depart="77.58" from="315658896#1" to="712288152#0" type="passenger"/>
    <trip id="79" depart="78.57" from="712288152#2" to="-315658884#4" type="passenger"/>
    <trip id="80" depart="79.57" from="318747848#5" to="318747848#6" type="passenger"/>
    <trip id="81" depart="80.56" from="773060732#4" to="619147739#4" type="passenger"/>
    <trip id="82" depart="81.56" from="773060732#0" to="379943753#1" type="passenger"/>
    <trip id="83" depart="82.55" from="712288152#2" to="379943755#1" type="passenger"/>
    <trip id="84" depart="83.55" from="318747848#4" to="-318747848#7" type="passenger"/>
    <trip id="85" depart="84.54" from="770860549" to="315658896#3" type="passenger"/>
    <trip id="86" depart="85.53" from="333557072#2" to="-770860548#1" type="passenger"/>
    <trip id="87" depart="86.53" from="379943753#1" to="1339697075#4" type="passenger"/>
    <trip id="88" depart="87.52" from="318747848#2" to="1339697075#3" type="passenger"/>
    <trip id="89" depart="88.52" from="-315658896#2" to="318747848#7" type="passenger"/>
    <trip id="90" depart="89.51" from="-318747848#2" to="1339697075#5" type="passenger"/>
    <trip id="91" depart="90.51" from="712288152#1" to="315658884#4" type="passenger"/>
    <trip id="92" depart="91.50" from="-318747848#4" to="-315658896#1" type="passenger"/>
    <trip id="93" depart="92.50" from="-315658897#2" to="-315658897#0" type="passenger"/>
    <trip id="94" depart="93.49" from="-651817398#5" to="-315658884#4" type="passenger"/>
    <trip id="95" depart="94.49" from="-651817398#1" to="-37403486#2" type="passenger"/>
    <trip id="96" depart="95.48" from="-315658884#4" to="-315658897#0" type="passenger"/>
    <trip id="97" depart="96.48" from="-315658896#3" to="-1339655670" type="passenger"/>
    <trip id="98" depart="97.47" from="619147739#5" to="318747848#7" type="passenger"/>
    <trip id="99" depart="98.46" from="-318747848#7" to="1339655667#0" type="passenger"/>
    <trip id="100" depart="99.46" from="619147739#0" to="318747848#5" type="passenger"/>
    <trip id="101" depart="100.45" from="770860549" to="619147739#5" type="passenger"/>
    <trip id="102" depart="101.45" from="78628775#1" to="-770860548#2" type="passenger"/>
    <trip id="103" depart="102.44" from="315658884#1" to="379943753#1" type="passenger"/>
    <trip id="104" depart="103.44" from="773060732#0" to="-351672100#0" type="passenger"/>
    <trip id="105" depart="104.43" from="-315658897#0" to="1339697075#3" type="passenger"/>
    <trip id="106" depart="105.43" from="712288152#2" to="1339697075#5" type="passenger"/>
    <trip id="107" depart="106.42" from="770860548#0" to="-37403486#1" type="passenger"/>
    <trip id="108" depart="107.42" from="-315658897#2" to="318747848#5" type="passenger"/>
    <trip id="109" depart="108.41" from="318747848#7" to="379943753#1" type="passenger"/>
    <trip id="110" depart="109.40" from="1339697075#3" to="1339697075#3" type="passenger"/>
    <trip id="111" depart="110.40" from="315658884#1" to="1339655667#1" type="passenger"/>
    <trip id="112" depart="111.39" from="379943753#1" to="1339697075#1" type="passenger"/>
    <trip id="113" depart="112.39" from="773060732#2" to="318747848#3" type="passenger"/>
    <trip id="114" depart="113.38" from="619147739#4" to="-318747848#4" type="passenger"/>
    <trip id="115" depart="114.38" from="-651817398#5" to="-318747848#3" type="passenger"/>
    <trip id="116" depart="115.37" from="351672100#1" to="351672100#4" type="passenger"/>
    <trip id="117" depart="116.37" from="379943753#0" to="318747848#4" type="passenger"/>
    <trip id="118" depart="117.36" from="-770860548#2" to="-315658884#3" type="passenger"/>
    <trip id="119" depart="118.36" from="318747848#5" to="619147739#4" type="passenger"/>
    <trip id="120" depart="119.35" from="-651817398#5" to="379943753#1" type="passenger"/>
    <trip id="121" depart="120.35" from="773060732#4" to="1339655667#0" type="passenger"/>
    <trip id="122" depart="121.34" from="78628775#0" to="315658897#2" type="passenger"/>
    <trip id="123" depart="122.33" from="333557072#3" to="-770860548#0" type="passenger"/>
    <trip id="124" depart="123.33" from="770860548#1" to="-464763971" type="passenger"/>
    <trip id="125" depart="124.32" from="315658896#1" to="318747848#5" type="passenger"/>
    <trip id="126" depart="125.32" from="315658884#2" to="-315658897#1" type="passenger"/>
    <trip id="127" depart="126.31" from="-315658884#2" to="-37403486#2" type="passenger"/>
    <trip id="128" depart="127.31" from="333557072#1" to="777881145" type="passenger"/>
    <trip id="129" depart="128.30" from="318747848#5" to="712288152#0" type="passenger"/>
    <trip id="130" depart="129.30" from="-315658896#2" to="1339697075#4" type="passenger"/>
    <trip id="131" depart="130.29" from="1339697075#5" to="1339697075#5" type="passenger"/>
    <trip id="132" depart="131.29" from="777881144#0" to="-37403486#2" type="passenger"/>
    <trip id="133" depart="132.28" from="619147739#5" to="379943753#1" type="passenger"/>
    <trip id="134" depart="133.27" from="315658884#3" to="318747848#7" type="passenger"/>
    <trip id="135" depart="134.27" from="1339655667#0" to="-351672100#4" type="passenger"/>
    <trip id="136" depart="135.26" from="78628775#1" to="318747848#4" type="passenger"/>
    <trip id="137" depart="136.26" from="78628775#2" to="-318747848#4" type="passenger"/>
    <trip id="138" depart="137.25" from="315658884#4" to="1339697076#1" type="passenger"/>
    <trip id="139" depart="138.25" from="315658884#2" to="-318747848#2" type="passenger"/>
    <trip id="140" depart="139.24" from="-315658884#3" to="315658896#1" type="passenger"/>
    <trip id="141" depart="140.24" from="-318747848#7" to="-315658896#1" type="passenger"/>
    <trip id="142" depart="141.23" from="1339697075#1" to="-464763971" type="passenger"/>
    <trip id="143" depart="142.23" from="-315658897#1" to="379943755#1" type="passenger"/>
    <trip id="144" depart="143.22" from="770860548#0" to="955312947" type="passenger"/>
    <trip id="145" depart="144.22" from="-651817398#0" to="-651817398#0" type="passenger"/>
    <trip id="146" depart="145.21" from="770860565" to="-318747848#3" type="passenger"/>
    <trip id="147" depart="146.20" from="773060732#0" to="318747848#5" type="passenger"/>
    <trip id="148" depart="147.20" from="315658896#2" to="1339655667#1" type="passenger"/>
    <trip id="149" depart="148.19" from="-651817398#3" to="619147739#5" type="passenger"/>
    <trip id="150" depart="149.19" from="773060732#3" to="315658884#3" type="passenger"/>
    <trip id="151" depart="150.18" from="619147739#3" to="-315658897#0" type="passenger"/>
    <trip id="152" depart="151.18" from="770860548#0" to="619147739#5" type="passenger"/>
    <trip id="153" depart="152.17" from="315658884#1" to="777881144#1" type="passenger"/>
    <trip id="154" depart="153.17" from="-384030395" to="-351672100#2" type="passenger"/>
    <trip id="155" depart="154.16" from="78628775#0" to="379943753#0" type="passenger"/>
    <trip id="156" depart="155.16" from="619147739#5" to="1339697075#6" type="passenger"/>
    <trip id="157" depart="156.15" from="821457682#1" to="-351672100#0" type="passenger"/>
    <trip id="158" depart="157.15" from="-651817398#5" to="315658896#1" type="passenger"/>
    <trip id="159" depart="158.14" from="-651817398#4" to="712288152#0" type="passenger"/>
    <trip id="160" depart="159.13" from="-318747848#3" to="-37403486#1" type="passenger"/>
    <trip id="161" depart="160.13" from="315658897#1" to="318747848#6" type="passenger"/>
    <trip id="162" depart="161.12" from="773060732#2" to="712288152#2" type="passenger"/>
    <trip id="163" depart="162.12" from="712288152#1" to="777881147#1" type="passenger"/>
    <trip id="164" depart="163.11" from="-651817398#4" to="619147739#1" type="passenger"/>
    <trip id="165" depart="164.11" from="770860565" to="1339697075#4" type="passenger"/>
    <trip id="166" depart="165.10" from="821457682#1" to="-1339655670" type="passenger"/>
    <trip id="167" depart="166.10" from="315658884#4" to="315658896#3" type="passenger"/>
    <trip id="168" depart="167.09" from="-315658897#1" to="-351672100#1" type="passenger"/>
    <trip id="169" depart="168.09" from="-712288152#2" to="1339697075#4" type="passenger"/>
    <trip id="170" depart="169.08" from="37403486#1" to="-464763971" type="passenger"/>
    <trip id="171" depart="170.07" from="770860548#1" to="770860548#2" type="passenger"/>
    <trip id="172" depart="171.07" from="78628775#2" to="712288152#0" type="passenger"/>
    <trip id="173" depart="172.06" from="-315658896#3" to="315658884#2" type="passenger"/>
    <trip id="174" depart="173.06" from="-315658897#2" to="-37403486#2" type="passenger"/>
    <trip id="175" depart="174.05" from="318747848#4" to="777881144#1" type="passenger"/>
    <trip id="176" depart="175.05" from="-770860548#2" to="318747848#7" type="passenger"/>
    <trip id="177" depart="176.04" from="333557072#1" to="777881147#1" type="passenger"/>
    <trip id="178" depart="177.04" from="-315658897#2" to="-1339655670" type="passenger"/>
    <trip id="179" depart="178.03" from="712288152#0" to="-315658896#1" type="passenger"/>
    <trip id="180" depart="179.03" from="-315658884#2" to="619147739#3" type="passenger"/>
    <trip id="181" depart="180.02" from="712288152#2" to="-351672100#1" type="passenger"/>
    <trip id="182" depart="181.02" from="379943753#0" to="315658896#2" type="passenger"/>
    <trip id="183" depart="182.01" from="-315658896#3" to="-351672100#1" type="passenger"/>
    <trip id="184" depart="183.00" from="315658896#2" to="318747848#4" type="passenger"/>
    <trip id="185" depart="184.00" from="315658884#1" to="-315658884#3" type="passenger"/>
    <trip id="186" depart="184.99" from="-770860548#1" to="1339697074" type="passenger"/>
    <trip id="187" depart="185.99" from="-651817398#4" to="-651817398#4" type="passenger"/>
    <trip id="188" depart="186.98" from="773060732#3" to="379943753#1" type="passenger"/>
    <trip id="189" depart="187.98" from="78628770#1" to="-351672100#1" type="passenger"/>
    <trip id="190" depart="188.97" from="-318747848#6" to="1339697076#1" type="passenger"/>
    <trip id="191" depart="189.97" from="821457682#1" to="-770860548#2" type="passenger"/>
    <trip id="192" depart="190.96" from="773060732#1" to="1339697075#2" type="passenger"/>
    <trip id="193" depart="191.96" from="-37403486#2" to="-351672100#1" type="passenger"/>
    <trip id="194" depart="192.95" from="-318747848#2" to="712288152#0" type="passenger"/>
    <trip id="195" depart="193.94" from="-770860565" to="-318747848#6" type="passenger"/>
    <trip id="196" depart="194.94" from="770860549" to="-351672100#1" type="passenger"/>
    <trip id="197" depart="195.93" from="-315658897#0" to="318747848#4" type="passenger"/>
    <trip id="198" depart="196.93" from="-651817398#3" to="-37403486#1" type="passenger"/>
    <trip id="199" depart="197.92" from="770860549" to="-770860548#1" type="passenger"/>
    <trip id="200" depart="198.92" from="770860548#1" to="1339697074" type="passenger"/>
    <trip id="201" depart="199.91" from="712288152#1" to="712288152#2" type="passenger"/>
    <trip id="202" depart="200.91" from="619147739#2" to="-351672100#1" type="passenger"/>
    <trip id="203" depart="201.90" from="384030401#0" to="1339697074" type="passenger"/>
    <trip id="204" depart="202.90" from="318747848#3" to="-315658884#3" type="passenger"/>
    <trip id="205" depart="203.89" from="-955312947" to="318747848#6" type="passenger"/>
    <trip id="206" depart="204.89" from="-770860548#2" to="-770860548#2" type="passenger"/>
    <trip id="207" depart="205.88" from="-384030401#1" to="-384030401#0" type="passenger"/>
    <trip id="208" depart="206.87" from="773060732#2" to="-318747848#5" type="passenger"/>
    <trip id="209" depart="207.87" from="384030401#0" to="778973690" type="passenger"/>
    <trip id="210" depart="208.86" from="-955312947" to="-318747848#7" type="passenger"/>
    <trip id="211" depart="209.86" from="-315658896#3" to="778973690" type="passenger"/>
    <trip id="212" depart="210.85" from="318747848#3" to="712288152#1" type="passenger"/>
    <trip id="213" depart="211.85" from="318747848#7" to="428544127" type="passenger"/>
    <trip id="214" depart="212.84" from="-315658896#3" to="-351672100#0" type="passenger"/>
    <trip id="215" depart="213.84" from="773060732#2" to="773060732#3" type="passenger"/>
    <trip id="216" depart="214.83" from="315658897#1" to="318747848#3" type="passenger"/>
    <trip id="217" depart="215.83" from="-770860548#1" to="777881144#1" type="passenger"/>
    <trip id="218" depart="216.82" from="-315658896#2" to="619147739#4" type="passenger"/>
    <trip id="219" depart="217.82" from="379943753#0" to="-315658896#2" type="passenger"/>
    <trip id="220" depart="218.81" from="351672100#0" to="37403486#2" type="passenger"/>
    <trip id="221" depart="219.80" from="619147739#1" to="1339697075#4" type="passenger"/>
    <trip id="222" depart="220.80" from="-778973690" to="-351672100#1" type="passenger"/>
    <trip id="223" depart="221.79" from="-315658897#2" to="777881144#1" type="passenger"/>
    <trip id="224" depart="222.79" from="770860548#0" to="-37403486#1" type="passenger"/>
    <trip id="225" depart="223.78" from="-315658884#4" to="1339655667#0" type="passenger"/>
    <trip id="226" depart="224.78" from="-315658896#3" to="-315658884#3" type="passenger"/>
    <trip id="227" depart="225.77" from="-315658897#1" to="315658896#3" type="passenger"/>
    <trip id="228" depart="226.77" from="-651817398#0" to="318747848#3" type="passenger"/>
    <trip id="229" depart="227.76" from="-318747848#6" to="-318747848#7" type="passenger"/>
    <trip id="230" depart="228.76" from="-318747848#4" to="-37403486#1" type="passenger"/>
    <trip id="231" depart="229.75" from="-315658884#3" to="-351672100#0" type="passenger"/>
    <trip id="232" depart="230.74" from="-315658897#1" to="315658884#2" type="passenger"/>
    <trip id="233" depart="231.74" from="315658884#4" to="1339655667#0" type="passenger"/>
    <trip id="234" depart="232.73" from="-770860548#2" to="-315658884#1" type="passenger"/>
    <trip id="235" depart="233.73" from="821457682#1" to="384030395" type="passenger"/>
    <trip id="236" depart="234.72" from="770860548#0" to="-315658897#0" type="passenger"/>
    <trip id="237" depart="235.72" from="-315658896#3" to="315658884#1" type="passenger"/>
    <trip id="238" depart="236.71" from="333557072#3" to="-351672100#4" type="passenger"/>
    <trip id="239" depart="237.71" from="-955312947" to="1339697075#5" type="passenger"/>
    <trip id="240" depart="238.70" from="821457682#1" to="1339697075#4" type="passenger"/>
    <trip id="241" depart="239.70" from="1339655670" to="778973690" type="passenger"/>
    <trip id="242" depart="240.69" from="-318747848#3" to="-351672100#2" type="passenger"/>
    <trip id="243" depart="241.69" from="-651817398#5" to="-315658897#1" type="passenger"/>
    <trip id="244" depart="242.68" from="-318747848#3" to="315658884#1" type="passenger"/>
    <trip id="245" depart="243.67" from="-318747848#7" to="315658896#1" type="passenger"/>
    <trip id="246" depart="244.67" from="-318747848#6" to="777881144#1" type="passenger"/>
    <trip id="247" depart="245.66" from="773060732#2" to="384030395" type="passenger"/>
    <trip id="248" depart="246.66" from="379943755#1" to="-351672100#1" type="passenger"/>
    <trip id="249" depart="247.65" from="-351672100#1" to="-351672100#0" type="passenger"/>
    <trip id="250" depart="248.65" from="315658897#1" to="-37403486#1" type="passenger"/>
    <trip id="251" depart="249.64" from="619147739#0" to="651817398#5" type="passenger"/>
    <trip id="252" depart="250.64" from="770860549" to="-770860548#1" type="passenger"/>
    <trip id="253" depart="251.63" from="315658897#1" to="315658884#4" type="passenger"/>
    <trip id="254" depart="252.63" from="773060732#4" to="-351672100#1" type="passenger"/>
    <trip id="255" depart="253.62" from="-770860549" to="619147739#3" type="passenger"/>
    <trip id="256" depart="254.61" from="-315658897#1" to="379943755#1" type="passenger"/>
    <trip id="257" depart="255.61" from="-955312947" to="-315658896#1" type="passenger"/>
    <trip id="258" depart="256.60" from="-318747848#5" to="777881147#1" type="passenger"/>
    <trip id="259" depart="257.60" from="-318747848#4" to="-37403486#2" type="passenger"/>
    <trip id="260" depart="258.59" from="333557072#0" to="-464763971" type="passenger"/>
    <trip id="261" depart="259.59" from="379943753#0" to="379943755#1" type="passenger"/>
    <trip id="262" depart="260.58" from="333557072#0" to="315658897#1" type="passenger"/>
    <trip id="263" depart="261.58" from="318747848#3" to="1339697074" type="passenger"/>
    <trip id="264" depart="262.57" from="619147739#2" to="-318747848#3" type="passenger"/>
    <trip id="265" depart="263.57" from="315658896#2" to="-318747848#7" type="passenger"/>
    <trip id="266" depart="264.56" from="770860549" to="-770860548#2" type="passenger"/>
    <trip id="267" depart="265.56" from="-778973690" to="1339697075#3" type="passenger"/>
    <trip id="268" depart="266.55" from="318747848#3" to="777881144#1" type="passenger"/>
    <trip id="269" depart="267.54" from="-318747848#4" to="619147739#4" type="passenger"/>
    <trip id="270" depart="268.54" from="315658896#2" to="318747848#5" type="passenger"/>
    <trip id="271" depart="269.53" from="333557072#3" to="1339655667#0" type="passenger"/>
    <trip id="272" depart="270.53" from="-770860548#2" to="318747848#6" type="passenger"/>
    <trip id="273" depart="271.52" from="-315658897#0" to="315658897#2" type="passenger"/>
    <trip id="274" depart="272.52" from="315658884#1" to="315658896#3" type="passenger"/>
    <trip id="275" depart="273.51" from="315658897#0" to="315658884#4" type="passenger"/>
    <trip id="276" depart="274.51" from="619147739#2" to="-37403486#2" type="passenger"/>
    <trip id="277" depart="275.50" from="318747848#6" to="-315658884#2" type="passenger"/>
    <trip id="278" depart="276.50" from="315658896#2" to="384030395" type="passenger"/>
    <trip id="279" depart="277.49" from="78628775#2" to="-351672100#2" type="passenger"/>
    <trip id="280" depart="278.49" from="-651817398#5" to="-1339655670" type="passenger"/>
    <trip id="281" depart="279.48" from="315658884#4" to="-315658897#1" type="passenger"/>
    <trip id="282" depart="280.47" from="315658897#1" to="-464763971" type="passenger"/>
    <trip id="283" depart="281.47" from="821457682#1" to="78628770#1" type="passenger"/>
    <trip id="284" depart="282.46" from="318747848#2" to="619147739#4" type="passenger"/>
    <trip id="285" depart="283.46" from="-651817398#5" to="315658897#2" type="passenger"/>
    <trip id="286" depart="284.45" from="712288152#1" to="777881144#1" type="passenger"/>
    <trip id="287" depart="285.45" from="315658884#2" to="1339697075#5" type="passenger"/>
    <trip id="288" depart="286.44" from="773060732#2" to="-37403486#2" type="passenger"/>
    <trip id="289" depart="287.44" from="-315658884#2" to="712288152#1" type="passenger"/>
    <trip id="290" depart="288.43" from="-651817398#1" to="315658897#0" type="passenger"/>
    <trip id="291" depart="289.43" from="78628775#0" to="315658896#1" type="passenger"/>
    <trip id="292" depart="290.42" from="333557072#3" to="-651818430" type="passenger"/>
    <trip id="293" depart="291.41" from="-315658884#2" to="-315658884#4" type="passenger"/>
    <trip id="294" depart="292.41" from="315658897#0" to="-318747848#7" type="passenger"/>
    <trip id="295" depart="293.40" from="773060732#4" to="-318747848#7" type="passenger"/>
    <trip id="296" depart="294.40" from="651817398#1" to="651817398#5" type="passenger"/>
    <trip id="297" depart="295.39" from="-651817398#0" to="1339697076#0" type="passenger"/>
    <trip id="298" depart="296.39" from="821457682#0" to="1339697075#2" type="passenger"/>
    <trip id="299" depart="297.38" from="-315658897#0" to="-351672100#2" type="passenger"/>
    <trip id="300" depart="298.38" from="821457682#1" to="-315658897#1" type="passenger"/>
    <trip id="301" depart="299.37" from="78628775#2" to="384030395" type="passenger"/>
    <trip id="302" depart="300.37" from="619147739#2" to="-712288152#1" type="passenger"/>
    <trip id="303" depart="301.36" from="315658884#2" to="315658884#4" type="passenger"/>
    <trip id="304" depart="302.36" from="-770860548#1" to="315658884#2" type="passenger"/>
    <trip id="305" depart="303.35" from="-315658897#2" to="318747848#6" type="passenger"/>
    <trip id="306" depart="304.34" from="-770860548#2" to="379943753#1" type="passenger"/>
    <trip id="307" depart="305.34" from="-384030395" to="1339697075#6" type="passenger"/>
    <trip id="308" depart="306.33" from="619147739#0" to="318747848#4" type="passenger"/>
    <trip id="309" depart="307.33" from="712288152#0" to="-315658884#3" type="passenger"/>
    <trip id="310" depart="308.32" from="333557072#3" to="-770860548#1" type="passenger"/>
    <trip id="311" depart="309.32" from="773060732#4" to="318747848#7" type="passenger"/>
    <trip id="312" depart="310.31" from="773060732#1" to="315658897#1" type="passenger"/>
    <trip id="313" depart="311.31" from="-315658884#4" to="-318747848#3" type="passenger"/>
    <trip id="314" depart="312.30" from="78628775#1" to="-770860548#2" type="passenger"/>
    <trip id="315" depart="313.30" from="712288152#0" to="-315658884#1" type="passenger"/>
    <trip id="316" depart="314.29" from="-651817398#1" to="778973690" type="passenger"/>
    <trip id="317" depart="315.28" from="315658896#1" to="1339697075#6" type="passenger"/>
    <trip id="318" depart="316.28" from="78628770#1" to="1339697075#6" type="passenger"/>
    <trip id="319" depart="317.27" from="379943753#0" to="315658884#3" type="passenger"/>
    <trip id="320" depart="318.27" from="619147739#5" to="619147739#4" type="passenger"/>
    <trip id="321" depart="319.26" from="773060732#0" to="-315658897#1" type="passenger"/>
    <trip id="322" depart="320.26" from="315658884#4" to="379943753#1" type="passenger"/>