<?xml version="1.0" encoding="UTF-8"?>

<!-- generated on 2026-04-17 02:50:35.207006 by Eclipse SUMO randomTrips.py v1.26.0
<configuration>
    <net-file value="/Users/junlee/Desktop/2026-1/js/result/tradeoff_pet_top12_seed12_60min_20260417_024953/sumo_nets/cw_6213/network.net.xml"/>
    <output-trip-file value="/Users/junlee/Desktop/2026-1/js/result/tradeoff_pet_top12_seed12_60min_20260417_024953/sumo_nets/cw_6213/routes_seed51.trips.xml"/>
    <route-file value="/Users/junlee/Desktop/2026-1/js/result/tradeoff_pet_top12_seed12_60min_20260417_024953/sumo_nets/cw_6213/routes_seed51.rou.xml"/>
    <vehicle-class value="passenger"/>
    <seed value="51"/>
    <period value="0.9166407026537015"/>
</configuration>
-->

<routes xmlns:xsi="http://www.w3.org/2001/XMLSchema-instance" xsi:noNamespaceSchemaLocation="http://sumo.dlr.de/xsd/routes_file.xsd">
    <vType id="passenger" vClass="passenger"/>
    <trip id="0" depart="0.00" from="-651817398#4" to="315658897#1" type="passenger"/>
    <trip id="1" depart="0.92" from="-651817398#2" to="318747848#6" type="passenger"/>
    <trip id="2" depart="1.83" from="777881144#0" to="1339697075#5" type="passenger"/>
    <trip id="3" depart="2.75" from="78628775#1" to="619147739#4" type="passenger"/>
    <trip id="4" depart="3.67" from="333557072#3" to="1339697075#1" type="passenger"/>
    <trip id="5" depart="4.58" from="821457682#1" to="1339697075#6" type="passenger"/>
    <trip id="6" depart="5.50" from="821457682#0" to="770860549" type="passenger"/>
    <trip id="7" depart="6.42" from="315658896#1" to="712288152#0" type="passenger"/>
    <trip id="8" depart="7.33" from="821457682#0" to="712288152#1" type="passenger"/>
    <trip id="9" depart="8.25" from="712288152#1" to="712288152#1" type="passenger"/>
    <trip id="10" depart="9.17" from="821457682#0" to="315658896#1" type="passenger"/>
    <trip id="11" depart="10.08" from="-315658884#2" to="315658884#1" type="passenger"/>
    <trip id="12" depart="11.00" from="1339697075#6" to="-464763971" type="passenger"/>
    <trip id="13" depart="11.92" from="78628775#0" to="-318747848#5" type="passenger"/>
    <trip id="14" depart="12.83" from="773060732#2" to="318747848#6" type="passenger"/>
    <trip id="15" depart="13.75" from="315658884#2" to="-318747848#6" type="passenger"/>
    <trip id="16" depart="14.67" from="78628775#2" to="712288152#2" type="passenger"/>
    <trip id="17" depart="15.58" from="318747848#6" to="318747848#3" type="passenger"/>
    <trip id="18" depart="16.50" from="712288152#0" to="777881145" type="passenger"/>
    <trip id="19" depart="17.42" from="-315658884#4" to="1339697076#1" type="passenger"/>
    <trip id="20" depart="18.33" from="333557072#2" to="318747848#7" type="passenger"/>
    <trip id="21" depart="19.25" from="-315658896#3" to="315658896#1" type="passenger"/>
    <trip id="22" depart="20.17" from="78628775#2" to="318747848#6" type="passenger"/>
    <trip id="23" depart="21.08" from="315658896#2" to="-351672100#1" type="passenger"/>
    <trip id="24" depart="22.00" from="-315658884#2" to="379943753#0" type="passenger"/>
    <trip id="25" depart="22.92" from="333557072#0" to="315658897#1" type="passenger"/>
    <trip id="26" depart="23.83" from="619147739#2" to="315658896#2" type="passenger"/>
    <trip id="27" depart="24.75" from="333557072#1" to="379943753#0" type="passenger"/>
    <trip id="28" depart="25.67" from="-315658884#1" to="-351672100#0" type="passenger"/>
    <trip id="29" depart="26.58" from="-315658897#1" to="315658896#3" type="passenger"/>
    <trip id="30" depart="27.50" from="-315658884#1" to="379943753#1" type="passenger"/>
    <trip id="31" depart="28.42" from="315658884#1" to="619147739#4" type="passenger"/>
    <trip id="32" depart="29.33" from="1339697075#6" to="-464763971" type="passenger"/>
    <trip id="33" depart="30.25" from="315658884#3" to="-315658897#1" type="passenger"/>
    <trip id="34" depart="31.17" from="821457682#0" to="-318747848#6" type="passenger"/>
    <trip id="35" depart="32.08" from="78628775#2" to="712288152#1" type="passenger"/>
    <trip id="36" depart="33.00" from="-315658897#2" to="-315658897#0" type="passenger"/>
    <trip id="37" depart="33.92" from="78628775#1" to="-464763971" type="passenger"/>
    <trip id="38" depart="34.83" from="-651817398#1" to="-351672100#4" type="passenger"/>
    <trip id="39" depart="35.75" from="712288152#0" to="-318747848#3" type="passenger"/>
    <trip id="40" depart="36.67" from="315658896#1" to="712288152#0" type="passenger"/>
    <trip id="41" depart="37.58" from="318747848#4" to="-315658884#1" type="passenger"/>
    <trip id="42" depart="38.50" from="-315658884#2" to="712288152#2" type="passenger"/>
    <trip id="43" depart="39.42" from="-770860548#2" to="-318747848#2" type="passenger"/>
    <trip id="44" depart="40.33" from="-770860548#2" to="-351672100#0" type="passenger"/>
    <trip id="45" depart="41.25" from="333557072#0" to="1339697075#4" type="passenger"/>
    <trip id="46" depart="42.17" from="-315658884#4" to="315658897#1" type="passenger"/>
    <trip id="47" depart="43.08" from="-315658897#0" to="-37403486#1" type="passenger"/>
    <trip id="48" depart="44.00" from="-315658884#3" to="315658896#3" type="passenger"/>
    <trip id="49" depart="44.92" from="-315658896#3" to="318747848#4" type="passenger"/>
    <trip id="50" depart="45.83" from="315658884#1" to="1339655667#0" type="passenger"/>
    <trip id="51" depart="46.75" from="315658896#2" to="-318747848#4" type="passenger"/>
    <trip id="52" depart="47.67" from="770860548#0" to="384030395" type="passenger"/>
    <trip id="53" depart="48.58" from="-315658884#4" to="1339697075#6" type="passenger"/>
    <trip id="54" depart="49.50" from="318747848#2" to="-37403486#1" type="passenger"/>
    <trip id="55" depart="50.42" from="315658897#1" to="379943753#1" type="passenger"/>
    <trip id="56" depart="51.33" from="651817398#1" to="651817398#2" type="passenger"/>
    <trip id="57" depart="52.25" from="379943753#0" to="315658896#1" type="passenger"/>
    <trip id="58" depart="53.17" from="1339655667#1" to="778973690" type="passenger"/>
    <trip id="59" depart="54.08" from="-651817398#0" to="777881147#1" type="passenger"/>
    <trip id="60" depart="55.00" from="821457682#0" to="379943755#1" type="passenger"/>
    <trip id="61" depart="55.92" from="-651817398#1" to="-37403486#1" type="passenger"/>
    <trip id="62" depart="56.83" from="-318747848#2" to="315658896#2" type="passenger"/>
    <trip id="63" depart="57.75" from="770860548#0" to="770860548#1" type="passenger"/>
    <trip id="64" depart="58.67" from="-712288152#1" to="1339697076#0" type="passenger"/>
    <trip id="65" depart="59.58" from="-651817398#2" to="379943753#1" type="passenger"/>
    <trip id="66" depart="60.50" from="315658896#1" to="318747848#6" type="passenger"/>
    <trip id="67" depart="61.41" from="770860565" to="777881145" type="passenger"/>
    <trip id="68" depart="62.33" from="770860548#1" to="-384030401#0" type="passenger"/>
    <trip id="69" depart="63.25" from="770860548#1" to="1339697075#4" type="passenger"/>
    <trip id="70" depart="64.16" from="619147739#1" to="1339697075#5" type="passenger"/>
    <trip id="71" depart="65.08" from="-315658884#3" to="318747848#6" type="passenger"/>
    <trip id="72" depart="66.00" from="-651817398#1" to="-651817398#1" type="passenger"/>
    <trip id="73" depart="66.91" from="333557072#0" to="379943755#1" type="passenger"/>
    <trip id="74" depart="67.83" from="78628775#1" to="-315658884#4" type="passenger"/>
    <trip id="75" depart="68.75" from="-315658897#0" to="-318747848#5" type="passenger"/>
    <trip id="76" depart="69.66" from="821457682#1" to="315658884#4" type="passenger"/>
    <trip id="77" depart="70.58" from="619147739#4" to="1339655667#0" type="passenger"/>
    <trip id="78" depart="71.50" from="-315658884#3" to="619147739#5" type="passenger"/>
    <trip id="79" depart="72.41" from="651817398#0" to="651817398#0" type="passenger"/>
    <trip id="80" depart="73.33" from="37403486#1" to="1339697075#2" type="passenger"/>
    <trip id="81" depart="74.25" from="-651817398#4" to="-651817398#2" type="passenger"/>
    <trip id="82" depart="75.16" from="-37403486#1" to="-351672100#2" type="passenger"/>
    <trip id="83" depart="76.08" from="712288152#0" to="318747848#3" type="passenger"/>
    <trip id="84" depart="77.00" from="-315658884#3" to="-318747848#4" type="passenger"/>
    <trip id="85" depart="77.91" from="1339655670" to="-384030401#1" type="passenger"/>
    <trip id="86" depart="78.83" from="-651817398#2" to="1339697074" type="passenger"/>
    <trip id="87" depart="79.75" from="770860565" to="821457682#0" type="passenger"/>
    <trip id="88" depart="80.66" from="-315658884#2" to="1339697075#5" type="passenger"/>
    <trip id="89" depart="81.58" from="78628770#1" to="-384030401#1" type="passenger"/>
    <trip id="90" depart="82.50" from="-315658896#2" to="315658896#3" type="passenger"/>
    <trip id="91" depart="83.41" from="315658896#1" to="315658884#4" type="passenger"/>
    <trip id="92" depart="84.33" from="333557072#2" to="-37403486#1" type="passenger"/>
    <trip id="93" depart="85.25" from="619147739#4" to="315658897#0" type="passenger"/>
    <trip id="94" depart="86.16" from="351672100#2" to="1339697075#4" type="passenger"/>
    <trip id="95" depart="87.08" from="770860565" to="712288152#1" type="passenger"/>
    <trip id="96" depart="88.00" from="-651817398#0" to="777881147#1" type="passenger"/>
    <trip id="97" depart="88.91" from="-770860548#1" to="770860548#2" type="passenger"/>
    <trip id="98" depart="89.83" from="379943755#1" to="-315658884#1" type="passenger"/>
    <trip id="99" depart="90.75" from="619147739#3" to="-318747848#2" type="passenger"/>
    <trip id="100" depart="91.66" from="-315658884#2" to="-318747848#2" type="passenger"/>
    <trip id="101" depart="92.58" from="-315658897#0" to="1339697075#6" type="passenger"/>
    <trip id="102" depart="93.50" from="-318747848#2" to="619147739#4" type="passenger"/>
    <trip id="103" depart="94.41" from="-315658897#1" to="315658897#1" type="passenger"/>
    <trip id="104" depart="95.33" from="770860565" to="-318747848#6" type="passenger"/>
    <trip id="105" depart="96.25" from="-315658896#2" to="712288152#0" type="passenger"/>
    <trip id="106" depart="97.16" from="-770860565" to="-351672100#4" type="passenger"/>
    <trip id="107" depart="98.08" from="770860549" to="1339697076#0" type="passenger"/>
    <trip id="108" depart="99.00" from="712288152#2" to="-315658884#3" type="passenger"/>
    <trip id="109" depart="99.91" from="333557072#1" to="-315658896#2" type="passenger"/>
    <trip id="110" depart="100.83" from="1339697075#1" to="1339697075#1" type="passenger"/>
    <trip id="111" depart="101.75" from="78628775#0" to="-318747848#3" type="passenger"/>
    <trip id="112" depart="102.66" from="773060732#4" to="-318747848#7" type="passenger"/>
    <trip id="113" depart="103.58" from="315658884#2" to="1339697075#3" type="passenger"/>
    <trip id="114" depart="104.50" from="-315658884#2" to="-37403486#1" type="passenger"/>
    <trip id="115" depart="105.41" from="821457682#0" to="318747848#7" type="passenger"/>
    <trip id="116" depart="106.33" from="379943755#1" to="318747848#5" type="passenger"/>
    <trip id="117" depart="107.25" from="-770860548#1" to="1339697076#1" type="passenger"/>
    <trip id="118" depart="108.16" from="773060732#1" to="-315658897#0" type="passenger"/>
    <trip id="119" depart="109.08" from="821457682#0" to="315658884#1" type="passenger"/>
    <trip id="120" depart="110.00" from="379943753#1" to="315658884#3" type="passenger"/>
    <trip id="121" depart="110.91" from="-318747848#3" to="315658897#1" type="passenger"/>
    <trip id="122" depart="111.83" from="-315658896#2" to="-315658896#1" type="passenger"/>
    <trip id="123" depart="112.75" from="773060732#3" to="773060732#4" type="passenger"/>
    <trip id="124" depart="113.66" from="619147739#5" to="-318747848#6" type="passenger"/>
    <trip id="125" depart="114.58" from="-651817398#2" to="315658897#1" type="passenger"/>
    <trip id="126" depart="115.50" from="333557072#1" to="315658896#1" type="passenger"/>
    <trip id="127" depart="116.41" from="-315658884#1" to="-37403486#1" type="passenger"/>
    <trip id="128" depart="117.33" from="777881144#0" to="1339697076#0" type="passenger"/>
    <trip id="129" depart="118.25" from="318747848#2" to="777881144#1" type="passenger"/>
    <trip id="130" depart="119.16" from="-651817398#2" to="1339697075#6" type="passenger"/>
    <trip id="131" depart="120.08" from="619147739#3" to="-315658896#2" type="passenger"/>
    <trip id="132" depart="121.00" from="333557072#0" to="-37403486#2" type="passenger"/>
    <trip id="133" depart="121.91" from="-770860549" to="-315658884#3" type="passenger"/>
    <trip id="134" depart="122.83" from="-651817398#5" to="1339697075#3" type="passenger"/>
    <trip id="135" depart="123.75" from="-315658884#2" to="1339655667#1" type="passenger"/>
    <trip id="136" depart="124.66" from="651817398#1" to="651817398#1" type="passenger"/>
    <trip id="137" depart="125.58" from="-315658884#1" to="315658884#2" type="passenger"/>
    <trip id="138" depart="126.50" from="315658896#2" to="-315658884#3" type="passenger"/>
    <trip id="139" depart="127.41" from="773060732#3" to="-315658896#2" type="passenger"/>
    <trip id="140" depart="128.33" from="333557072#1" to="-351672100#0" type="passenger"/>
    <trip id="141" depart="129.25" from="-651817398#3" to="315658884#3" type="passenger"/>
    <trip id="142" depart="130.16" from="-318747848#4" to="-1339655670" type="passenger"/>
    <trip id="143" depart="131.08" from="-315658896#2" to="-315658897#0" type="passenger"/>
    <trip id="144" depart="132.00" from="351672100#2" to="778973690" type="passenger"/>
    <trip id="145" depart="132.91" from="315658897#1" to="318747848#4" type="passenger"/>
    <trip id="146" depart="133.83" from="315658896#1" to="955312947" type="passenger"/>
    <trip id="147" depart="134.75" from="315658896#2" to="379943753#1" type="passenger"/>
    <trip id="148" depart="135.66" from="-315658884#4" to="1339697076#0" type="passenger"/>
    <trip id="149" depart="136.58" from="-651817398#1" to="318747848#6" type="passenger"/>
    <trip id="150" depart="137.50" from="-651817398#2" to="-315658884#2" type="passenger"/>
    <trip id="151" depart="138.41" from="773060732#2" to="619147739#4" type="passenger"/>
    <trip id="152" depart="139.33" from="315658896#1" to="-315658896#1" type="passenger"/>
    <trip id="153" depart="140.25" from="333557072#1" to="-464763971" type="passenger"/>
    <trip id="154" depart="141.16" from="-955312947" to="-351672100#0" type="passenger"/>
    <trip id="155" depart="142.08" from="-37403486#2" to="-384030401#0" type="passenger"/>
    <trip id="156" depart="143.00" from="712288152#0" to="-351672100#2" type="passenger"/>
    <trip id="157" depart="143.91" from="773060732#2" to="778973690" type="passenger"/>
    <trip id="158" depart="144.83" from="773060732#3" to="315658896#2" type="passenger"/>
    <trip id="159" depart="145.75" from="379943753#1" to="619147739#4" type="passenger"/>
    <trip id="160" depart="146.66" from="712288152#0" to="-315658897#0" type="passenger"/>
    <trip id="161" depart="147.58" from="-315658896#2" to="315658884#3" type="passenger"/>
    <trip id="162" depart="148.50" from="-318747848#6" to="-315658884#3" type="passenger"/>
    <trip id="163" depart="149.41" from="821457682#0" to="-318747848#5" type="passenger"/>
    <trip id="164" depart="150.33" from="712288152#0" to="315658896#1" type="passenger"/>
    <trip id="165" depart="151.25" from="777881144#1" to="777881145" type="passenger"/>
    <trip id="166" depart="152.16" from="-315658896#2" to="-318747848#7" type="passenger"/>
    <trip id="167" depart="153.08" from="712288152#0" to="-315658884#1" type="passenger"/>
    <trip id="168" depart="154.00" from="821457682#1" to="384030395" type="passenger"/>
    <trip id="169" depart="154.91" from="-318747848#3" to="315658896#2" type="passenger"/>
    <trip id="170" depart="155.83" from="78628770#1" to="318747848#5" type="passenger"/>
    <trip id="171" depart="156.75" from="379943753#1" to="-318747848#6" type="passenger"/>
    <trip id="172" depart="157.66" from="770860565" to="-351672100#1" type="passenger"/>
    <trip id="173" depart="158.58" from="1339697076#1" to="1339697075#5" type="passenger"/>
    <trip id="174" depart="159.50" from="-651817398#1" to="1339697075#3" type="passenger"/>
    <trip id="175" depart="160.41" from="-315658884#1" to="-464763971" type="passenger"/>
    <trip id="176" depart="161.33" from="379943753#0" to="777881145" type="passenger"/>
    <trip id="177" depart="162.25" from="821457682#0" to="619147739#6" type="passenger"/>
    <trip id="178" depart="163.16" from="770860548#1" to="-770860548#2" type="passenger"/>
    <trip id="179" depart="164.08" from="773060732#3" to="318747848#2" type="passenger"/>
    <trip id="180" depart="165.00" from="315658896#1" to="-1339655670" type="passenger"/>
    <trip id="181" depart="165.91" from="770860548#1" to="712288152#0" type="passenger"/>
    <trip id="182" depart="166.83" from="379943755#1" to="777881147#1" type="passenger"/>
    <trip id="183" depart="167.75" from="712288152#1" to="1339697075#1" type="passenger"/>
    <trip id="184" depart="168.66" from="78628775#2" to="1339697074" type="passenger"/>
    <trip id="185" depart="169.58" from="712288152#1" to="315658896#1" type="passenger"/>
    <trip id="186" depart="170.50" from="318747848#5" to="1339655667#1" type="passenger"/>
    <trip id="187" depart="171.41" from="333557072#0" to="712288152#1" type="passenger"/>
    <trip id="188" depart="172.33" from="-770860548#2" to="712288152#2" type="passenger"/>
    <trip id="189" depart="173.25" from="318747848#5" to="384030395" type="passenger"/>
    <trip id="190" depart="174.16" from="315658884#4" to="315658896#2" type="passenger"/>
    <trip id="191" depart="175.08" from="-315658884#1" to="-351672100#2" type="passenger"/>
    <trip id="192" depart="176.00" from="773060732#1" to="315658897#1" type="passenger"/>
    <trip id="193" depart="176.91" from="619147739#0" to="1339697075#3" type="passenger"/>
    <trip id="194" depart="177.83" from="318747848#4" to="-315658897#1" type="passenger"/>
    <trip id="195" depart="178.74" from="315658884#2" to="318747848#4" type="passenger"/>
    <trip id="196" depart="179.66" from="-778973690" to="1339697075#6" type="passenger"/>
    <trip id="197" depart="180.58" from="619147739#1" to="-315658884#4" type="passenger"/>
    <trip id="198" depart="181.49" from="-315658884#3" to="-384030401#1" type="passenger"/>
    <trip id="199" depart="182.41" from="619147739#2" to="318747848#7" type="passenger"/>
    <trip id="200" depart="183.33" from="315658884#2" to="318747848#4" type="passenger"/>
    <trip id="201" depart="184.24" from="619147739#2" to="1339655667#1" type="passenger"/>
    <trip id="202" depart="185.16" from="318747848#5" to="315658896#2" type="passenger"/>
    <trip id="203" depart="186.08" from="315658897#0" to="-315658896#1" type="passenger"/>
    <trip id="204" depart="186.99" from="1339697075#1" to="1339697075#6" type="passenger"/>
    <trip id="205" depart="187.91" from="770860565" to="318747848#6" type="passenger"/>
    <trip id="206" depart="188.83" from="-318747848#2" to="379943753#0" type="passenger"/>
    <trip id="207" depart="189.74" from="-651817398#1" to="-712288152#0" type="passenger"/>
    <trip id="208" depart="190.66" from="-318747848#7" to="712288152#1" type="passenger"/>
    <trip id="209" depart="191.58" from="-315658897#0" to="-464763971" type="passenger"/>
    <trip id="210" depart="192.49" from="-315658897#2" to="-315658897#1" type="passenger"/>
    <trip id="211" depart="193.41" from="619147739#2" to="1339697076#0" type="passenger"/>
    <trip id="212" depart="194.33" from="712288152#2" to="-318747848#7" type="passenger"/>
    <trip id="213" depart="195.24" from="619147739#2" to="-315658884#1" type="passenger"/>
    <trip id="214" depart="196.16" from="315658884#3" to="1339697074" type="passenger"/>
    <trip id="215" depart="197.08" from="379943753#1" to="384030395" type="passenger"/>
    <trip id="216" depart="197.99" from="-770860565" to="-384030401#1" type="passenger"/>
    <trip id="217" depart="198.91" from="-651817398#5" to="-318747848#7" type="passenger"/>
    <trip id="218" depart="199.83" from="770860548#0" to="315658884#2" type="passenger"/>
    <trip id="219" depart="200.74" from="333557072#3" to="-318747848#6" type="passenger"/>
    <trip id="220" depart="201.66" from="318747848#2" to="-318747848#4" type="passenger"/>
    <trip id="221" depart="202.58" from="-318747848#4" to="318747848#5" type="passenger"/>
    <trip id="222" depart="203.49" from="379943755#1" to="379943753#0" type="passenger"/>
    <trip id="223" depart="204.41" from="773060732#1" to="-37403486#2" type="passenger"/>
    <trip id="224" depart="205.33" from="-651817398#5" to="-351672100#0" type="passenger"/>
    <trip id="225" depart="206.24" from="619147739#3" to="-351672100#1" type="passenger"/>
    <trip id="226" depart="207.16" from="333557072#0" to="712288152#1" type="passenger"/>
    <trip id="227" depart="208.08" from="619147739#1" to="315658897#0" type="passenger"/>
    <trip id="228" depart="208.99" from="333557072#0" to="-318747848#7" type="passenger"/>
    <trip id="229" depart="209.91" from="318747848#7" to="-37403486#1" type="passenger"/>
    <trip id="230" depart="210.83" from="78628775#0" to="315658896#1" type="passenger"/>
    <trip id="231" depart="211.74" from="619147739#5" to="-315658896#2" type="passenger"/>
    <trip id="232" depart="212.66" from="619147739#1" to="1339697074" type="passenger"/>
    <trip id="233" depart="213.58" from="770860565" to="-651818430" type="passenger"/>
    <trip id="234" depart="214.49" from="333557072#3" to="712288152#2" type="passenger"/>
    <trip id="235" depart="215.41" from="770860548#1" to="315658896#2" type="passenger"/>
    <trip id="236" depart="216.33" from="318747848#7" to="1339697075#1" type="passenger"/>
    <trip id="237" depart="217.24" from="-315658884#1" to="712288152#2" type="passenger"/>
    <trip id="238" depart="218.16" from="1339655670" to="-351672100#4" type="passenger"/>
    <trip id="239" depart="219.08" from="-651817398#5" to="315658884#4" type="passenger"/>
    <trip id="240" depart="219.99" from="-955312947" to="-318747848#6" type="passenger"/>
    <trip id="241" depart="220.91" from="-770860548#2" to="619147739#5" type="passenger"/>
    <trip id="242" depart="221.83" from="351672100#4" to="-384030401#0" type="passenger"/>
    <trip id="243" depart="222.74" from="1339697076#0" to="1339697075#2" type="passenger"/>
    <trip id="244" depart="223.66" from="777881144#0" to="315658884#1" type="passenger"/>
    <trip id="245" depart="224.58" from="770860548#1" to="770860548#2" type="passenger"/>
    <trip id="246" depart="225.49" from="770860548#1" to="-315658884#4" type="passenger"/>
    <trip id="247" depart="226.41" from="318747848#4" to="379943753#1" type="passenger"/>
    <trip id="248" depart="227.33" from="773060732#0" to="-351672100#0" type="passenger"/>
    <trip id="249" depart="228.24" from="-318747848#7" to="-315658896#1" type="passenger"/>
    <trip id="250" depart="229.16" from="-651817398#3" to="619147739#3" type="passenger"/>
    <trip id="251" depart="230.08" from="-651817398#3" to="619147739#2" type="passenger"/>
    <trip id="252" depart="230.99" from="-770860548#2" to="-770860548#2" type="passenger"/>
    <trip id="253" depart="231.91" from="333557072#3" to="-37403486#1" type="passenger"/>
    <trip id="254" depart="232.83" from="-315658884#4" to="1339697075#1" type="passenger"/>
    <trip id="255" depart="233.74" from="619147739#1" to="379943753#0" type="passenger"/>
    <trip id="256" depart="234.66" from="-315658897#2" to="-351672100#1" type="passenger"/>
    <trip id="257" depart="235.58" from="619147739#3" to="-315658897#1" type="passenger"/>
    <trip id="258" depart="236.49" from="1339697075#1" to="1339697074" type="passenger"/>
    <trip id="259" depart="237.41" from="773060732#4" to="619147739#5" type="passenger"/>
    <trip id="260" depart="238.33" from="315658897#0" to="315658897#2" type="passenger"/>
    <trip id="261" depart="239.24" from="78628775#1" to="318747848#2" type="passenger"/>
    <trip id="262" depart="240.16" from="619147739#2" to="-384030401#1" type="passenger"/>
    <trip id="263" depart="241.08" from="-318747848#5" to="-315658884#4" type="passenger"/>
    <trip id="264" depart="241.99" from="-315658884#2" to="-1339655670" type="passenger"/>
    <trip id="265" depart="242.91" from="-318747848#2" to="-315658884#4" type="passenger"/>
    <trip id="266" depart="243.83" from="-770860548#1" to="333557072#5" type="passenger"/>
    <trip id="267" depart="244.74" from="318747848#7" to="-315658884#1" type="passenger"/>
    <trip id="268" depart="245.66" from="712288152#2" to="-37403486#1" type="passenger"/>
    <trip id="269" depart="246.58" from="315658884#1" to="-318747848#4" type="passenger"/>
    <trip id="270" depart="247.49" from="-315658896#2" to="315658896#2" type="passenger"/>
    <trip id="271" depart="248.41" from="770860548#0" to="-315658884#3" type="passenger"/>
    <trip id="272" depart="249.33" from="-315658897#2" to="-351672100#4" type="passenger"/>
    <trip id="273" depart="250.24" from="821457682#0" to="1339697075#1" type="passenger"/>
    <trip id="274" depart="251.16" from="619147739#1" to="384030395" type="passenger"/>
    <trip id="275" depart="252.08" from="78628775#1" to="770860549" type="passenger"/>
    <trip id="276" depart="252.99" from="-651817398#1" to="-651817398#0" type="passenger"/>
    <trip id="277" depart="253.91" from="78628775#1" to="1339697074" type="passenger"/>
    <trip id="278" depart="254.83" from="-651817398#5" to="-351672100#2" type="passenger"/>
    <trip id="279" depart="255.74" from="619147739#1" to="777881144#1" type="passenger"/>
    <trip id="280" depart="256.66" from="333557072#0" to="712288152#2" type="passenger"/>
    <trip id="281" depart="257.58" from="-384030401#1" to="-384030401#0" type="passenger"/>
    <trip id="282" depart="258.49" from="-315658897#0" to="318747848#3" type="passenger"/>
    <trip id="283" depart="259.41" from="384030401#0" to="-351672100#0" type="passenger"/>
    <trip id="284" depart="260.33" from="-770860549" to="-315658896#1" type="passenger"/>
    <trip id="285" depart="261.24" from="-315658884#2" to="619147739#6" type="passenger"/>
    <trip id="286" depart="262.16" from="-37403486#1" to="384030395" type="passenger"/>
    <trip id="287" depart="263.08" from="821457682#0" to="1339697075#3" type="passenger"/>
    <trip id="288" depart="263.99" from="1339655670" to="1339697075#2" type="passenger"/>
    <trip id="289" depart="264.91" from="712288152#0" to="384030395" type="passenger"/>
    <trip id="290" depart="265.83" from="315658884#2" to="712288152#2" type="passenger"/>
    <trip id="291" depart="266.74" from="379943753#1" to="-315658884#4" type="passenger"/>
    <trip id="292" depart="267.66" from="78628775#1" to="379943753#1" type="passenger"/>
    <trip id="293" depart="268.58" from="333557072#0" to="955312947" type="passenger"/>
    <trip id="294" depart="269.49" from="-651817398#3" to="619147739#6" type="passenger"/>
    <trip id="295" depart="270.41" from="-651817398#0" to="379943753#0" type="passenger"/>
    <trip id="296" depart="271.33" from="712288152#1" to="315658884#1" type="passenger"/>
    <trip id="297" depart="272.24" from="379943753#0" to="1339655667#0" type="passenger"/>
    <trip id="298" depart="273.16" from="318747848#4" to="619147739#4" type="passenger"/>
    <trip id="299" depart="274.08" from="-315658897#1" to="428544127" type="passenger"/>
    <trip id="300" depart="274.99" from="821457682#0" to="619147739#5" type="passenger"/>
    <trip id="301" depart="275.91" from="379943753#0" to="384030395" type="passenger"/>
    <trip id="302" depart="276.83" from="-651817398#0" to="315658884#2" type="passenger"/>
    <trip id="303" depart="277.74" from="315658896#1" to="379943755#1" type="passenger"/>
    <trip id="304" depart="278.66" from="773060732#2" to="1339697075#4" type="passenger"/>
    <trip id="305" depart="279.58" from="-315658897#1" to="-315658884#3" type="passenger"/>
    <trip id="306" depart="280.49" from="-315658897#1" to="1339697075#4" type="passenger"/>
    <trip id="307" depart="281.41" from="651817398#0" to="651817398#4" type="passenger"/>
    <trip id="308" depart="282.33" from="78628775#1" to="315658884#4" type="passenger"/>
    <trip id="309" depart="283.24" from="619147739#1" to="619147739#4" type="passenger"/>
    <trip id="310" depart="284.16" from="712288152#2" to="-384030401#1" type="passenger"/>
    <trip id="311" depart="285.08" from="770860548#1" to="955312947" type="passenger"/>
    <trip id="312" depart="285.99" from="318747848#4" to="315658897#2" type="passenger"/>
    <trip id="313" depart="286.91" from="-651817398#2" to="315658897#2" type="passenger"/>
    <trip id="314" depart="287.83" from="619147739#2" to="315658897#2" type="passenger"/>
    <trip id="315" depart="288.74" from="315658896#1" to="318747848#6" type="passenger"/>
    <trip id="316" depart="289.66" from="315658884#2" to="315658884#1" type="passenger"/>
    <trip id="317" depart="290.58" from="379943755#1" to="-351672100#4" type="passenger"/>
    <trip id="318" depart="291.49" from="-770860565" to="619147739#5" type="passenger"/>
    <trip id="319" depart="292.41" from="-318747848#6" to="318747848#4" type="passenger"/>
    <trip id="320" depart="293.33" from="-770860548#1" to="-351672100#4" type="passenger"/>
    <trip id="321" depart="294.24" from="379943753#0" to="-315658884#3" type="passenger"/>
    <trip id="322" depart="295.16" from="-770860549" to="428544127" type="passenger"/>
    <trip id="323" depart="296.07" from="-315658896#2" to="777881145" type="passenger"/>