<?xml version="1.0" encoding="UTF-8"?>

<!-- generated on 2026-04-15T03:08:00.486194+09:00 by Eclipse SUMO netconvert 1.26.0
<netconvertConfiguration xmlns:xsi="http://www.w3.org/2001/XMLSchema-instance" xsi:noNamespaceSchemaLocation="http://sumo.dlr.de/xsd/netconvertConfiguration.xsd">

    <input>
        <osm-files value="/Users/junlee/Desktop/2026-1/js/result/report_top12_seed4_2h/sumo_nets/cw_6511/map.osm"/>
    </input>

    <output>
        <output-file value="/Users/junlee/Desktop/2026-1/js/result/report_top12_seed4_2h/sumo_nets/cw_6511/network.net.xml"/>
    </output>

    <projection>
        <proj.utm value="true"/>
    </projection>

    <processing>
        <geometry.remove value="true"/>
        <roundabouts.guess value="true"/>
    </processing>

    <tls_building>
        <tls.guess value="true"/>
        <tls.guess-signals value="true"/>
    </tls_building>

    <ramp_guessing>
        <ramps.guess value="true"/>
    </ramp_guessing>

    <edge_removal>
        <keep-edges.by-vclass value="passenger,pedestrian"/>
    </edge_removal>

    <junctions>
        <no-turnarounds value="true"/>
        <junctions.join value="true"/>
    </junctions>

    <pedestrian>
        <sidewalks.guess value="true"/>
        <sidewalks.guess.max-speed value="13.89"/>
        <crossings.guess value="true"/>
    </pedestrian>

    <report>
        <verbose value="true"/>
    </report>

</netconvertConfiguration>
-->

<net version="1.20" junctionCornerDetail="5" walkingareas="true" limitTurnSpeed="5.50" xmlns:xsi="http://www.w3.org/2001/XMLSchema-instance" xsi:noNamespaceSchemaLocation="http://sumo.dlr.de/xsd/net_file.xsd">

    <location netOffset="-321718.74,-4158292.54" convBoundary="0.00,0.00,669.55,1040.49" origBoundary="126.972668,37.553890,126.992391,37.563850" projParameter="+proj=utm +zone=52 +ellps=WGS84 +datum=WGS84 +units=m +no_defs"/>

    <type id="highway.footway" priority="1" numLanes="1" speed="2.78" allow="pedestrian" oneway="1" width="2.00"/>
    <type id="highway.pedestrian" priority="1" numLanes="1" speed="2.78" allow="pedestrian" oneway="1" width="2.00"/>
    <type id="highway.primary" priority="12" numLanes="2" speed="27.78" disallow="tram rail_urban rail rail_electric rail_fast ship container cable_car subway aircraft wheelchair scooter drone" oneway="0"/>
    <type id="highway.primary_link" priority="7" numLanes="1" speed="22.22" disallow="tram rail_urban rail rail_electric rail_fast ship container cable_car subway aircraft wheelchair scooter drone" oneway="0"/>
    <type id="highway.residential" priority="3" numLanes="1" speed="13.89" disallow="tram rail_urban rail rail_electric rail_fast ship container cable_car subway aircraft wheelchair scooter drone" oneway="0"/>
    <type id="highway.secondary_link" priority="6" numLanes="1" speed="22.22" disallow="tram rail_urban rail rail_electric rail_fast ship container cable_car subway aircraft wheelchair scooter drone" oneway="0"/>
    <type id="highway.service" priority="1" numLanes="1" speed="5.56" allow="pedestrian delivery bicycle" oneway="0"/>
    <type id="highway.steps" priority="1" numLanes="1" speed="1.39" allow="pedestrian" oneway="1" width="2.00"/>
    <type id="highway.tertiary" priority="10" numLanes="1" speed="22.22" disallow="tram rail_urban rail rail_electric rail_fast ship container cable_car subway aircraft wheelchair scooter drone" oneway="0"/>

    <edge id=":11059614391_w0" function="walkingarea">
        <lane id=":11059614391_w0_0" index="0" allow="pedestrian" speed="2.78" length="0.10" width="3.20" shape="662.49,745.62 661.71,751.98"/>
    </edge>
    <edge id=":11203052956_0" function="internal">
        <lane id=":11203052956_0_0" index="0" disallow="tram rail_urban rail rail_electric rail_fast ship container cable_car subway aircraft wheelchair scooter drone" speed="27.78" length="0.29" shape="79.74,662.45 80.03,662.59"/>
        <lane id=":11203052956_0_1" index="1" disallow="tram rail_urban rail rail_electric rail_fast ship container cable_car subway aircraft wheelchair scooter drone" speed="27.78" length="0.29" shape="78.38,665.35 78.64,665.47"/>
        <lane id=":11203052956_0_2" index="2" disallow="tram rail_urban rail rail_electric rail_fast ship container cable_car subway aircraft wheelchair scooter drone" speed="27.78" length="0.29" shape="77.02,668.25 77.25,668.36"/>
    </edge>
    <edge id=":11203052956_w0" function="walkingarea">
        <lane id=":11203052956_w0_0" index="0" allow="pedestrian" speed="2.78" length="0.33" width="3.20" shape="76.55,669.80 80.73,661.15 80.41,661.00 76.34,669.69"/>
    </edge>
    <edge id=":11913466762_0" function="internal">
        <lane id=":11913466762_0_0" index="0" allow="pedestrian delivery bicycle" speed="4.87" length="5.23" shape="515.21,492.23 514.93,490.79 514.25,489.87 513.18,489.47 511.71,489.60"/>
    </edge>
    <edge id=":11913466762_1" function="internal">
        <lane id=":11913466762_1_0" index="0" disallow="tram rail_urban rail rail_electric rail_fast ship container cable_car subway aircraft wheelchair scooter drone" speed="22.22" length="9.50" shape="515.21,492.23 514.69,482.75"/>
    </edge>
    <edge id=":11913466762_2" function="internal">
        <lane id=":11913466762_2_0" index="0" disallow="tram rail_urban rail rail_electric rail_fast ship container cable_car subway aircraft wheelchair scooter drone" speed="22.22" length="9.49" shape="517.88,482.59 518.41,492.06"/>
    </edge>
    <edge id=":11913466762_3" function="internal">
        <lane id=":11913466762_3_0" index="0" allow="pedestrian delivery bicycle" speed="7.33" length="2.99" shape="517.88,482.59 517.64,485.08 517.41,485.51"/>
    </edge>
    <edge id=":11913466762_6" function="internal">
        <lane id=":11913466762_6_0" index="0" allow="pedestrian delivery bicycle" speed="7.33" length="7.30" shape="517.41,485.51 516.53,487.08 514.56,488.59 511.71,489.60"/>
    </edge>
    <edge id=":11913466762_4" function="internal">
        <lane id=":11913466762_4_0" index="0" allow="pedestrian delivery bicycle" speed="5.66" length="5.78" shape="510.98,486.48 512.68,485.91 513.86,485.09 514.53,484.04 514.69,482.75"/>
    </edge>
    <edge id=":11913466762_5" function="internal">
        <lane id=":11913466762_5_0" index="0" allow="pedestrian delivery bicycle" speed="6.74" length="11.08" shape="510.98,486.48 514.09,486.21 516.36,487.05 517.80,489.00 518.41,492.06"/>
    </edge>
    <edge id=":11913466762_w0" function="walkingarea">
        <lane id=":11913466762_w0_0" index="0" allow="pedestrian" speed="2.78" length="7.10" width="6.40" shape="513.61,492.31 520.01,491.98 519.48,482.51 513.09,482.83 512.86,483.72 512.52,484.10 512.04,484.42 511.40,484.70 510.62,484.92 512.08,491.16 512.90,491.13 513.19,491.28 513.41,491.52 513.55,491.87"/>
    </edge>
    <edge id=":11913466765_0" function="internal">
        <lane id=":11913466765_0_0" index="0" allow="pedestrian delivery bicycle" speed="5.56" length="6.54" shape="467.23,510.06 465.14,510.07 463.48,510.43 462.24,511.14 461.43,512.19"/>
    </edge>
    <edge id=":11913466765_1" function="internal">
        <lane id=":11913466765_1_0" index="0" allow="pedestrian delivery bicycle" speed="5.56" length="11.74" shape="467.23,510.06 463.94,509.35 461.99,507.79 461.37,505.36 462.10,502.07"/>
    </edge>
    <edge id=":11913466765_2" function="internal">
        <lane id=":11913466765_2_0" index="0" allow="pedestrian delivery bicycle" speed="4.79" length="5.39" shape="465.10,503.20 464.76,504.71 465.04,505.82 465.94,506.54 467.45,506.87"/>
    </edge>
    <edge id=":11913466765_3" function="internal">
        <lane id=":11913466765_3_0" index="0" allow="pedestrian delivery bicycle" speed="5.56" length="9.72" shape="465.10,503.20 464.10,505.91 463.42,507.76 462.66,509.58 461.43,512.19"/>
    </edge>
    <edge id=":11913466765_4" function="internal">
        <lane id=":11913466765_4_0" index="0" allow="pedestrian delivery bicycle" speed="5.56" length="9.71" shape="458.42,511.05 459.66,508.45 460.42,506.63 461.11,504.78 462.10,502.07"/>
    </edge>
    <edge id=":11913466765_5" function="internal">
        <lane id=":11913466765_5_0" index="0" allow="pedestrian delivery bicycle" speed="5.56" length="10.60" shape="458.42,511.05 459.84,509.04 461.82,507.68 464.36,506.95 467.45,506.87"/>
    </edge>
    <edge id=":11913466765_w0" function="walkingarea">
        <lane id=":11913466765_w0_0" index="0" allow="pedestrian" speed="2.78" length="7.38" width="6.40" shape="467.12,511.65 467.56,505.27 466.79,505.06 466.57,504.84 466.47,504.55 466.48,504.19 466.60,503.76 460.60,501.51 459.89,503.45 459.36,504.89 458.92,506.07 458.44,507.23 457.81,508.62 456.92,510.48 462.93,512.76 463.69,512.03 464.31,511.81 465.09,511.67 466.02,511.62"/>
    </edge>
    <edge id=":1327214749_0" function="internal">
        <lane id=":1327214749_0_0" index="0" disallow="tram rail_urban rail rail_electric rail_fast ship container cable_car subway aircraft wheelchair scooter drone" speed="27.78" length="9.04" shape="317.28,707.98 308.30,706.90"/>
        <lane id=":1327214749_0_1" index="1" disallow="tram rail_urban rail rail_electric rail_fast ship container cable_car subway aircraft wheelchair scooter drone" speed="27.78" length="9.04" shape="317.66,704.80 308.68,703.73"/>
    </edge>
    <edge id=":1327214749_2" function="internal">
        <lane id=":1327214749_2_0" index="0" disallow="pedestrian tram rail_urban rail rail_electric rail_fast ship container cable_car subway aircraft wheelchair scooter drone" speed="6.00" length="7.40" shape="313.41,711.09 313.22,709.50 312.30,708.27 310.67,707.41 308.30,706.90"/>
    </edge>
    <edge id=":1327214749_w0" function="walkingarea">
        <lane id=":1327214749_w0_0" index="0" allow="pedestrian" speed="2.78" length="6.92" width="3.20" shape="317.09,709.56 317.47,706.39 317.85,703.21 308.87,702.14 308.49,705.32 308.12,708.49 309.82,710.74 311.81,710.93"/>
    </edge>
    <edge id=":1908148220_0" function="internal">
        <lane id=":1908148220_0_0" index="0" disallow="pedestrian tram rail_urban rail rail_electric rail_fast ship container cable_car subway aircraft wheelchair scooter drone" speed="6.33" length="8.43" shape="603.22,675.92 605.43,675.96 607.15,675.22 608.38,673.71 609.12,671.42"/>
    </edge>
    <edge id=":1908148220_1" function="internal">
        <lane id=":1908148220_1_0" index="0" disallow="pedestrian tram rail_urban rail rail_electric rail_fast ship container cable_car subway aircraft wheelchair scooter drone" speed="5.65" length="8.13" shape="604.70,685.29 605.66,682.89 605.64,681.06 604.64,679.78 602.67,679.07"/>
    </edge>
    <edge id=":1908148220_2" function="internal">
        <lane id=":1908148220_2_0" index="0" disallow="tram rail_urban rail rail_electric rail_fast ship container cable_car subway aircraft wheelchair scooter drone" speed="22.22" length="14.62" shape="604.70,685.29 606.26,681.96 607.46,678.55 608.38,675.04 609.12,671.42"/>
    </edge>
    <edge id=":1908148220_w0" function="walkingarea">
        <lane id=":1908148220_w0_0" index="0" allow="pedestrian" speed="2.78" length="9.58" width="3.20" shape="602.39,680.64 602.05,682.61 603.29,684.54 606.11,686.05 610.69,671.71 607.55,671.13 603.84,672.37 603.50,674.34"/>
    </edge>
    <edge id=":1908148225_0" function="internal">
        <lane id=":1908148225_0_0" index="0" disallow="tram rail_urban rail rail_electric rail_fast ship container cable_car subway aircraft wheelchair scooter drone" speed="15.28" length="2.27" shape="554.16,716.11 552.22,717.29"/>
    </edge>
    <edge id=":1908148225_1" function="internal">
        <lane id=":1908148225_1_0" index="0" disallow="tram rail_urban rail rail_electric rail_fast ship container cable_car subway aircraft wheelchair scooter drone" speed="22.22" length="3.79" shape="555.31,719.27 551.53,719.50"/>
    </edge>
    <edge id=":1908148225_w0" function="walkingarea">
        <lane id=":1908148225_w0_0" index="0" allow="pedestrian" speed="2.78" length="2.96" width="3.20" shape="551.02,721.10 552.70,715.76 551.07,715.19 550.50,714.97 549.92,714.81 549.21,714.73 548.23,714.72 548.46,721.12"/>
    </edge>
    <edge id=":1908148227_0" function="internal">
        <lane id=":1908148227_0_0" index="0" disallow="tram rail_urban rail rail_electric rail_fast ship container cable_car subway aircraft wheelchair scooter drone" speed="27.78" length="2.77" shape="533.13,729.47 530.48,729.28"/>
        <lane id=":1908148227_0_1" index="1" disallow="tram rail_urban rail rail_electric rail_fast ship container cable_car subway aircraft wheelchair scooter drone" speed="27.78" length="2.77" shape="533.47,726.29 530.59,726.08"/>
    </edge>
    <edge id=":1908148227_2" function="internal">
        <lane id=":1908148227_2_0" index="0" disallow="tram rail_urban rail rail_electric rail_fast ship container cable_car subway aircraft wheelchair scooter drone" speed="8.05" length="2.02" shape="533.01,735.24 532.26,735.59 531.69,735.72 531.10,735.72 530.25,735.68"/>
        <lane id=":1908148227_2_1" index="1" disallow="tram rail_urban rail rail_electric rail_fast ship container cable_car subway aircraft wheelchair scooter drone" speed="5.42" length="2.02" shape="531.52,732.41 531.20,732.54 530.97,732.55 530.72,732.51 530.36,732.48"/>
    </edge>
    <edge id=":1908148227_w0" function="walkingarea">
        <lane id=":1908148227_w0_0" index="0" allow="pedestrian" speed="2.78" length="5.14" width="3.20" shape="532.96,731.06 533.64,724.70 530.65,724.48 530.19,737.27 531.57,737.33 532.05,737.31 532.53,737.20 533.06,737.00 533.76,736.65 530.77,730.99 530.72,731.20 531.16,731.16 531.75,731.10 532.39,731.05"/>
    </edge>
    <edge id=":1908148231_w0" function="walkingarea">
        <lane id=":1908148231_w0_0" index="0" allow="pedestrian" speed="2.78" length="0.10" width="3.20" shape="636.51,735.74 635.83,742.10"/>
    </edge>
    <edge id=":1908868479_0" function="internal">
        <lane id=":1908868479_0_0" index="0" disallow="pedestrian tram rail_urban rail rail_electric rail_fast ship container cable_car subway aircraft wheelchair scooter drone" speed="5.98" length="7.50" shape="404.04,718.38 401.57,718.31 399.76,718.77 398.58,719.77 398.05,721.30"/>
    </edge>
    <edge id=":1908868479_1" function="internal">
        <lane id=":1908868479_1_0" index="0" disallow="tram rail_urban rail rail_electric rail_fast ship container cable_car subway aircraft wheelchair scooter drone" speed="27.78" length="9.20" shape="404.04,718.38 394.90,717.28"/>
        <lane id=":1908868479_1_1" index="1" disallow="tram rail_urban rail rail_electric rail_fast ship container cable_car subway aircraft wheelchair scooter drone" speed="27.78" length="9.20" shape="404.42,715.20 395.28,714.11"/>
    </edge>
    <edge id=":1908868479_w0" function="walkingarea">
        <lane id=":1908868479_w0_0" index="0" allow="pedestrian" speed="2.78" length="7.02" width="3.20" shape="399.64,721.49 401.63,721.71 403.85,719.96 404.23,716.79 404.61,713.61 395.47,712.52 395.09,715.69 394.71,718.87"/>
    </edge>
    <edge id=":2087933366_0" function="internal">
        <lane id=":2087933366_0_0" index="0" disallow="pedestrian tram rail_urban rail rail_electric rail_fast ship container cable_car subway aircraft wheelchair scooter drone" speed="6.42" length="5.02" shape="403.07,870.74 400.55,870.19 398.52,870.61 398.25,870.85"/>
    </edge>
    <edge id=":2087933366_1" function="internal">
        <lane id=":2087933366_1_0" index="0" disallow="pedestrian tram rail_urban rail rail_electric rail_fast ship container cable_car subway aircraft wheelchair scooter drone" speed="13.89" length="13.55" shape="403.07,870.74 399.30,869.35 396.74,868.27 394.38,866.85 391.19,864.43"/>
    </edge>
    <edge id=":2087933366_6" function="internal">
        <lane id=":2087933366_6_0" index="0" disallow="pedestrian tram rail_urban rail rail_electric rail_fast ship container cable_car subway aircraft wheelchair scooter drone" speed="6.42" length="4.29" shape="398.25,870.85 396.98,872.00 395.93,874.36"/>
    </edge>
    <edge id=":2087933366_2" function="internal">
        <lane id=":2087933366_2_0" index="0" disallow="pedestrian tram rail_urban rail rail_electric rail_fast ship container cable_car subway aircraft wheelchair scooter drone" speed="13.89" length="12.55" shape="393.18,861.92 396.14,864.15 398.33,865.46 400.69,866.46 404.19,867.74"/>
    </edge>
    <edge id=":2087933366_3" function="internal">
        <lane id=":2087933366_3_0" index="0" disallow="pedestrian tram rail_urban rail rail_electric rail_fast ship container cable_car subway aircraft wheelchair scooter drone" speed="9.27" length="3.29" shape="393.18,861.92 395.27,864.22 395.34,864.39"/>
    </edge>
    <edge id=":2087933366_7" function="internal">
        <lane id=":2087933366_7_0" index="0" disallow="pedestrian tram rail_urban rail rail_electric rail_fast ship container cable_car subway aircraft wheelchair scooter drone" speed="9.27" length="10.25" shape="395.34,864.39 396.43,867.06 396.65,870.44 395.93,874.36"/>
    </edge>
    <edge id=":2087933366_4" function="internal">
        <lane id=":2087933366_4_0" index="0" disallow="pedestrian tram rail_urban rail rail_electric rail_fast ship container cable_car subway aircraft wheelchair scooter drone" speed="7.95" length="9.77" shape="392.85,873.48 393.42,870.55 393.33,868.06 392.59,866.02 391.19,864.43"/>
    </edge>
    <edge id=":2087933366_5" function="internal">
        <lane id=":2087933366_5_0" index="0" disallow="pedestrian tram rail_urban rail rail_electric rail_fast ship container cable_car subway aircraft wheelchair scooter drone" speed="7.93" length="14.78" shape="392.85,873.48 394.52,869.74 396.96,867.54 400.18,866.87 404.19,867.74"/>
    </edge>
    <edge id=":2087933366_c0" function="crossing" crossingEdges="322977650 -322977650">
        <lane id=":2087933366_c0_0" index="0" allow="pedestrian" speed="2.78" length="6.40" width="4.00" shape="402.87,865.54 400.64,871.54" outlineShape="404.75,866.24 402.51,872.24 401.29,871.90 400.21,871.87 399.30,872.15 398.53,872.72 398.39,872.94 398.76,870.84 401.00,864.84 402.34,865.36"/>
    </edge>
    <edge id=":2087933366_c1" function="crossing" crossingEdges="-198691071#0 198691071#0">
        <lane id=":2087933366_c1_0" index="0" allow="pedestrian" speed="2.78" length="6.40" width="4.00" shape="391.76,866.92 395.74,861.91" outlineShape="390.20,865.68 394.17,860.67 394.24,860.59 394.17,860.67 396.19,862.22 397.39,863.05 391.83,870.05 391.85,869.88 391.78,868.56 391.48,867.42 390.95,866.46"/>
    </edge>
    <edge id=":2087933366_c2" function="crossing" crossingEdges="198691071#1 -198691071#1">
        <lane id=":2087933366_c2_0" index="0" allow="pedestrian" speed="2.78" length="6.40" width="4.00" shape="398.01,872.87 391.86,871.12" outlineShape="397.47,874.79 391.31,873.05 391.70,871.37 391.85,869.88 391.81,869.03 392.40,869.20 398.56,870.94 400.47,871.88 400.21,871.87 399.30,872.15 398.53,872.72 397.92,873.61"/>
    </edge>
    <edge id=":2087933366_w0" function="walkingarea">
        <lane id=":2087933366_w0_0" index="0" allow="pedestrian" speed="2.78" length="3.32" width="4.00" shape="397.47,874.79 399.39,875.34 401.81,874.11 402.51,872.24 401.29,871.90 400.21,871.87 399.30,872.15 398.53,872.72 397.92,873.61"/>
    </edge>
    <edge id=":2087933366_w1" function="walkingarea">
        <lane id=":2087933366_w1_0" index="0" allow="pedestrian" speed="2.78" length="7.32" width="4.00" shape="404.75,866.24 405.44,864.36 395.42,859.10 394.17,860.67 396.19,862.22 397.75,863.30 399.12,864.06 400.56,864.69 402.34,865.36"/>
    </edge>
    <edge id=":2087933366_w2" function="walkingarea">
        <lane id=":2087933366_w2_0" index="0" allow="pedestrian" speed="2.78" length="4.37" width="4.00" shape="390.20,865.68 388.96,867.25 389.39,872.50 391.31,873.05 391.70,871.37 391.85,869.88 391.78,868.56 391.48,867.42 390.95,866.46"/>
    </edge>
    <edge id=":2087933378_0" function="internal">
        <lane id=":2087933378_0_0" index="0" disallow="pedestrian tram rail_urban rail rail_electric rail_fast ship container cable_car subway aircraft wheelchair scooter drone" speed="6.52" length="4.77" shape="268.57,831.90 266.10,831.91 264.22,832.71 264.06,832.91"/>
    </edge>
    <edge id=":2087933378_1" function="internal">
        <lane id=":2087933378_1_0" index="0" disallow="pedestrian tram rail_urban rail rail_electric rail_fast ship container cable_car subway aircraft wheelchair scooter drone" speed="13.89" length="14.40" shape="268.57,831.90 254.32,829.88"/>
    </edge>
    <edge id=":2087933378_6" function="internal">
        <lane id=":2087933378_6_0" index="0" disallow="pedestrian tram rail_urban rail rail_electric rail_fast ship container cable_car subway aircraft wheelchair scooter drone" speed="6.52" length="4.28" shape="264.06,832.91 262.93,834.30 262.23,836.68"/>
    </edge>
    <edge id=":2087933378_2" function="internal">
        <lane id=":2087933378_2_0" index="0" disallow="pedestrian tram rail_urban rail rail_electric rail_fast ship container cable_car subway aircraft wheelchair scooter drone" speed="13.89" length="14.40" shape="254.77,826.71 269.02,828.74"/>
    </edge>
    <edge id=":2087933378_3" function="internal">
        <lane id=":2087933378_3_0" index="0" disallow="pedestrian tram rail_urban rail rail_electric rail_fast ship container cable_car subway aircraft wheelchair scooter drone" speed="8.00" length="4.07" shape="254.77,826.71 258.51,827.80 258.65,827.91"/>
    </edge>
    <edge id=":2087933378_7" function="internal">
        <lane id=":2087933378_7_0" index="0" disallow="pedestrian tram rail_urban rail rail_electric rail_fast ship container cable_car subway aircraft wheelchair scooter drone" speed="8.00" length="10.15" shape="258.65,827.91 261.00,829.82 262.24,832.79 262.23,836.68"/>
    </edge>
    <edge id=":2087933378_4" function="internal">
        <lane id=":2087933378_4_0" index="0" disallow="pedestrian tram rail_urban rail rail_electric rail_fast ship container cable_car subway aircraft wheelchair scooter drone" speed="6.50" length="9.04" shape="259.06,836.22 259.07,833.74 258.28,831.86 256.70,830.57 254.32,829.88"/>
    </edge>
    <edge id=":2087933378_5" function="internal">
        <lane id=":2087933378_5_0" index="0" disallow="pedestrian tram rail_urban rail rail_electric rail_fast ship container cable_car subway aircraft wheelchair scooter drone" speed="8.01" length="14.20" shape="259.06,836.22 260.16,832.48 262.19,829.99 265.14,828.74 269.02,828.74"/>
    </edge>
    <edge id=":2087933378_c0" function="crossing" crossingEdges="198691072#1 -198691072#1">
        <lane id=":2087933378_c0_0" index="0" allow="pedestrian" speed="2.78" length="6.40" width="4.00" shape="267.27,826.87 266.37,833.21" outlineShape="269.25,827.15 268.35,833.49 263.81,836.92 265.79,837.20 268.07,835.47 268.35,833.49 263.82,836.89 265.29,826.59"/>
    </edge>
    <edge id=":2087933378_c1" function="crossing" crossingEdges="-198691072#0 198691072#0">
        <lane id=":2087933378_c1_0" index="0" allow="pedestrian" speed="2.78" length="6.40" width="4.00" shape="256.07,831.74 256.98,825.41" outlineShape="254.09,831.46 255.00,825.12 258.96,825.69 258.05,832.02 257.42,834.07 257.36,833.72 256.92,832.87 256.23,832.21 255.29,831.74"/>
    </edge>
    <edge id=":2087933378_c2" function="crossing" crossingEdges="-198691062#1 198691062#1">
        <lane id=":2087933378_c2_0" index="0" allow="pedestrian" speed="2.78" length="6.40" width="4.00" shape="264.10,834.94 257.77,834.01" outlineShape="263.81,836.92 257.48,835.99 257.55,834.76 257.36,833.72 256.92,832.87 256.23,832.21 255.92,832.06 258.06,832.03 264.39,832.96 266.43,833.56 266.09,833.62 265.24,834.06 264.58,834.76 264.10,835.71"/>
    </edge>
    <edge id=":2087933378_w0" function="walkingarea">
        <lane id=":2087933378_w0_0" index="0" allow="pedestrian" speed="2.78" length="3.31" width="4.00" shape="263.81,836.92 265.79,837.20 268.07,835.47 268.35,833.49 267.12,833.43 266.09,833.62 265.24,834.06 264.58,834.76 264.10,835.71"/>
    </edge>
    <edge id=":2087933378_w1" function="walkingarea">
        <lane id=":2087933378_w1_0" index="0" allow="pedestrian" speed="2.78" length="9.02" width="4.00" shape="265.29,826.59 269.25,827.15 269.53,825.17 255.28,823.14 255.00,825.12 258.96,825.69"/>
    </edge>
    <edge id=":2087933378_w2" function="walkingarea">
        <lane id=":2087933378_w2_0" index="0" allow="pedestrian" speed="2.78" length="3.30" width="4.00" shape="254.09,831.46 253.81,833.44 255.50,835.70 257.48,835.99 257.55,834.76 257.36,833.72 256.92,832.87 256.23,832.21 255.29,831.74"/>
    </edge>
    <edge id=":2087933389_0" function="internal">
        <lane id=":2087933389_0_0" index="0" disallow="pedestrian tram rail_urban rail rail_electric rail_fast ship container cable_car subway aircraft wheelchair scooter drone" speed="6.18" length="6.66" shape="375.17,851.72 372.39,850.08 370.18,849.99 369.26,850.80"/>
    </edge>
    <edge id=":2087933389_1" function="internal">
        <lane id=":2087933389_1_0" index="0" disallow="pedestrian tram rail_urban rail rail_electric rail_fast ship container cable_car subway aircraft wheelchair scooter drone" speed="13.89" length="11.58" shape="375.17,851.72 372.54,849.48 370.67,847.92 368.59,846.86 365.31,846.13"/>
    </edge>
    <edge id=":2087933389_7" function="internal">
        <lane id=":2087933389_7_0" index="0" disallow="pedestrian tram rail_urban rail rail_electric rail_fast ship container cable_car subway aircraft wheelchair scooter drone" speed="6.18" length="4.22" shape="369.26,850.80 368.52,851.47 367.42,854.50"/>
    </edge>
    <edge id=":2087933389_2" function="internal">
        <lane id=":2087933389_2_0" index="0" disallow="pedestrian tram rail_urban rail rail_electric rail_fast ship container cable_car subway aircraft wheelchair scooter drone" speed="8.49" length="12.55" shape="372.03,838.67 371.61,841.17 372.32,843.76 374.17,846.44 377.15,849.21"/>
    </edge>
    <edge id=":2087933389_3" function="internal">
        <lane id=":2087933389_3_0" index="0" disallow="pedestrian tram rail_urban rail rail_electric rail_fast ship container cable_car subway aircraft wheelchair scooter drone" speed="13.89" length="16.53" shape="372.03,838.67 370.25,843.24 369.22,846.43 368.44,849.70 367.42,854.50"/>
    </edge>
    <edge id=":2087933389_4" function="internal">
        <lane id=":2087933389_4_0" index="0" disallow="pedestrian tram rail_urban rail rail_electric rail_fast ship container cable_car subway aircraft wheelchair scooter drone" speed="7.68" length="10.66" shape="372.03,838.67 370.40,842.13 368.74,844.53 367.04,845.86 365.31,846.13"/>
    </edge>
    <edge id=":2087933389_5" function="internal">
        <lane id=":2087933389_5_0" index="0" disallow="pedestrian tram rail_urban rail rail_electric rail_fast ship container cable_car subway aircraft wheelchair scooter drone" speed="13.89" length="13.26" shape="365.78,842.97 369.55,843.78 371.97,844.94 374.13,846.67 377.15,849.21"/>
    </edge>
    <edge id=":2087933389_6" function="internal">
        <lane id=":2087933389_6_0" index="0" disallow="pedestrian tram rail_urban rail rail_electric rail_fast ship container cable_car subway aircraft wheelchair scooter drone" speed="7.42" length="1.86" shape="365.78,842.97 367.38,843.91"/>
    </edge>
    <edge id=":2087933389_8" function="internal">
        <lane id=":2087933389_8_0" index="0" disallow="pedestrian tram rail_urban rail rail_electric rail_fast ship container cable_car subway aircraft wheelchair scooter drone" speed="7.42" length="10.79" shape="367.38,843.91 368.18,846.15 368.20,849.68 367.42,854.50"/>
    </edge>
    <edge id=":2087933389_c0" function="crossing" crossingEdges="198691071#0 -198691071#0">
        <lane id=":2087933389_c0_0" index="0" allow="pedestrian" speed="2.78" length="6.40" width="4.00" shape="376.58,846.72 372.61,851.73" outlineShape="378.15,847.96 374.17,852.97 374.11,853.05 374.17,852.97 372.89,852.12 371.78,851.74 370.83,851.82 370.05,852.36 371.04,850.49 375.01,845.47 375.24,845.19 376.31,846.36"/>
    </edge>
    <edge id=":2087933389_c1" function="crossing" crossingEdges="198691061#1">
        <lane id=":2087933389_c1_0" index="0" allow="pedestrian" speed="2.78" length="3.20" width="4.00" shape="369.80,839.93 372.77,841.12" outlineShape="370.54,838.07 373.51,839.26 373.21,840.56 373.35,841.92 373.91,843.34 374.26,843.88 367.72,841.25 367.86,841.22 368.65,840.78 369.37,840.11 370.00,839.21"/>
    </edge>
    <edge id=":2087933389_c2" function="crossing" crossingEdges="-198691091 198691091">
        <lane id=":2087933389_c2_0" index="0" allow="pedestrian" speed="2.78" length="6.40" width="4.00" shape="367.05,848.01 367.99,841.68" outlineShape="365.07,847.71 366.02,841.38 366.98,841.42 367.86,841.22 368.65,840.78 369.37,840.11 369.71,839.61 369.97,841.98 369.03,848.31 366.34,850.35 366.32,849.48 366.09,848.57 365.68,847.98"/>
    </edge>
    <edge id=":2087933389_c3" function="crossing" crossingEdges="198691061#2">
        <lane id=":2087933389_c3_0" index="0" allow="pedestrian" speed="2.78" length="3.20" width="4.00" shape="369.41,852.88 366.28,852.21" outlineShape="368.99,854.84 365.86,854.17 364.81,849.85 365.86,854.17 366.70,850.25 369.83,850.92 371.78,851.74 370.83,851.82 370.05,852.36 369.44,853.37"/>
    </edge>
    <edge id=":2087933389_w0" function="walkingarea">
        <lane id=":2087933389_w0_0" index="0" allow="pedestrian" speed="2.78" length="3.36" width="4.00" shape="368.99,854.84 370.94,855.25 372.93,854.54 374.17,852.97 372.89,852.12 371.78,851.74 370.83,851.82 370.05,852.36 369.44,853.37"/>
    </edge>
    <edge id=":2087933389_w1" function="walkingarea">
        <lane id=":2087933389_w1_0" index="0" allow="pedestrian" speed="2.78" length="5.98" width="4.00" shape="378.15,847.96 379.39,846.39 375.37,840.01 373.51,839.26 373.21,840.56 373.35,841.92 373.91,843.34 374.89,844.82 376.31,846.36"/>
    </edge>
    <edge id=":2087933389_w2" function="walkingarea">