<?xml version="1.0" encoding="UTF-8"?>

<!-- generated on 2026-04-17 02:57:57.273879 by Eclipse SUMO randomTrips.py v1.26.0
<configuration>
    <net-file value="/Users/junlee/Desktop/2026-1/js/result/tradeoff_pet_top12_seed12_60min_20260417_025716/sumo_nets/cw_6213/network.net.xml"/>
    <output-trip-file value="/Users/junlee/Desktop/2026-1/js/result/tradeoff_pet_top12_seed12_60min_20260417_025716/sumo_nets/cw_6213/routes_seed47.trips.xml"/>
    <route-file value="/Users/junlee/Desktop/2026-1/js/result/tradeoff_pet_top12_seed12_60min_20260417_025716/sumo_nets/cw_6213/routes_seed47.rou.xml"/>
    <vehicle-class value="passenger"/>
    <seed value="47"/>
    <period value="0.9812114449097381"/>
</configuration>
-->

<routes xmlns:xsi="http://www.w3.org/2001/XMLSchema-instance" xsi:noNamespaceSchemaLocation="http://sumo.dlr.de/xsd/routes_file.xsd">
    <vType id="passenger" vClass="passenger"/>
    <trip id="0" depart="0.00" from="315658884#3" to="1339655667#1" type="passenger"/>
    <trip id="1" depart="0.98" from="318747848#2" to="1339697075#5" type="passenger"/>
    <trip id="2" depart="1.96" from="-315658884#3" to="-318747848#4" type="passenger"/>
    <trip id="3" depart="2.94" from="315658896#2" to="318747848#5" type="passenger"/>
    <trip id="4" depart="3.92" from="773060732#4" to="773060732#4" type="passenger"/>
    <trip id="5" depart="4.91" from="318747848#4" to="1339697075#1" type="passenger"/>
    <trip id="6" depart="5.89" from="78628775#0" to="-315658884#3" type="passenger"/>
    <trip id="7" depart="6.87" from="770860548#0" to="777881144#1" type="passenger"/>
    <trip id="8" depart="7.85" from="1339655670" to="1339697075#4" type="passenger"/>
    <trip id="9" depart="8.83" from="-651817398#1" to="619147739#5" type="passenger"/>
    <trip id="10" depart="9.81" from="318747848#5" to="-315658884#4" type="passenger"/>
    <trip id="11" depart="10.79" from="-651817398#5" to="619147739#3" type="passenger"/>
    <trip id="12" depart="11.77" from="37403486#1" to="-464763971" type="passenger"/>
    <trip id="13" depart="12.76" from="821457682#0" to="318747848#7" type="passenger"/>
    <trip id="14" depart="13.74" from="712288152#0" to="318747848#5" type="passenger"/>
    <trip id="15" depart="14.72" from="773060732#4" to="-315658884#3" type="passenger"/>
    <trip id="16" depart="15.70" from="318747848#3" to="379943755#1" type="passenger"/>
    <trip id="17" depart="16.68" from="-318747848#6" to="-351672100#0" type="passenger"/>
    <trip id="18" depart="17.66" from="-315658884#1" to="-318747848#7" type="passenger"/>
    <trip id="19" depart="18.64" from="-315658897#0" to="-315658884#2" type="passenger"/>
    <trip id="20" depart="19.62" from="318747848#2" to="315658897#0" type="passenger"/>
    <trip id="21" depart="20.61" from="318747848#4" to="318747848#7" type="passenger"/>
    <trip id="22" depart="21.59" from="-315658884#2" to="-315658897#1" type="passenger"/>
    <trip id="23" depart="22.57" from="770860548#0" to="777881145" type="passenger"/>
    <trip id="24" depart="23.55" from="-315658897#0" to="-318747848#7" type="passenger"/>
    <trip id="25" depart="24.53" from="-318747848#2" to="-315658896#2" type="passenger"/>
    <trip id="26" depart="25.51" from="773060732#2" to="318747848#4" type="passenger"/>
    <trip id="27" depart="26.49" from="-315658897#2" to="315658897#0" type="passenger"/>
    <trip id="28" depart="27.47" from="1339697075#6" to="1339697074" type="passenger"/>
    <trip id="29" depart="28.46" from="-770860548#2" to="770860548#2" type="passenger"/>
    <trip id="30" depart="29.44" from="315658897#0" to="-351672100#1" type="passenger"/>
    <trip id="31" depart="30.42" from="78628775#1" to="-318747848#6" type="passenger"/>
    <trip id="32" depart="31.40" from="712288152#1" to="315658884#1" type="passenger"/>
    <trip id="33" depart="32.38" from="-315658884#3" to="-318747848#4" type="passenger"/>
    <trip id="34" depart="33.36" from="315658884#3" to="315658884#4" type="passenger"/>
    <trip id="35" depart="34.34" from="78628775#0" to="-384030401#0" type="passenger"/>
    <trip id="36" depart="35.32" from="773060732#2" to="619147739#4" type="passenger"/>
    <trip id="37" depart="36.30" from="-318747848#2" to="778973690" type="passenger"/>
    <trip id="38" depart="37.29" from="78628770#1" to="318747848#4" type="passenger"/>
    <trip id="39" depart="38.27" from="619147739#4" to="1339697075#1" type="passenger"/>
    <trip id="40" depart="39.25" from="-770860565" to="379943755#1" type="passenger"/>
    <trip id="41" depart="40.23" from="-770860548#2" to="777881147#1" type="passenger"/>
    <trip id="42" depart="41.21" from="78628770#1" to="315658897#1" type="passenger"/>
    <trip id="43" depart="42.19" from="770860565" to="770860549" type="passenger"/>
    <trip id="44" depart="43.17" from="351672100#0" to="351672100#2" type="passenger"/>
    <trip id="45" depart="44.15" from="315658884#4" to="318747848#7" type="passenger"/>
    <trip id="46" depart="45.14" from="384030401#1" to="1339697075#3" type="passenger"/>
    <trip id="47" depart="46.12" from="-315658884#1" to="-351672100#0" type="passenger"/>
    <trip id="48" depart="47.10" from="-315658897#1" to="1339697075#4" type="passenger"/>
    <trip id="49" depart="48.08" from="318747848#2" to="-318747848#4" type="passenger"/>
    <trip id="50" depart="49.06" from="773060732#1" to="-318747848#4" type="passenger"/>
    <trip id="51" depart="50.04" from="315658897#1" to="315658884#2" type="passenger"/>
    <trip id="52" depart="51.02" from="712288152#2" to="1339697075#5" type="passenger"/>
    <trip id="53" depart="52.00" from="318747848#2" to="315658884#1" type="passenger"/>
    <trip id="54" depart="52.99" from="770860548#1" to="-351672100#0" type="passenger"/>
    <trip id="55" depart="53.97" from="619147739#0" to="315658897#0" type="passenger"/>
    <trip id="56" depart="54.95" from="379943753#0" to="-318747848#5" type="passenger"/>
    <trip id="57" depart="55.93" from="351672100#2" to="-1339655670" type="passenger"/>
    <trip id="58" depart="56.91" from="619147739#1" to="-315658897#1" type="passenger"/>
    <trip id="59" depart="57.89" from="-318747848#6" to="1339697075#5" type="passenger"/>
    <trip id="60" depart="58.87" from="78628775#1" to="712288152#2" type="passenger"/>
    <trip id="61" depart="59.85" from="318747848#6" to="619147739#6" type="passenger"/>
    <trip id="62" depart="60.84" from="384030401#1" to="1339697074" type="passenger"/>
    <trip id="63" depart="61.82" from="318747848#3" to="1339697076#1" type="passenger"/>
    <trip id="64" depart="62.80" from="315658884#1" to="379943755#1" type="passenger"/>
    <trip id="65" depart="63.78" from="619147739#2" to="-315658884#2" type="passenger"/>
    <trip id="66" depart="64.76" from="78628775#1" to="-315658896#1" type="passenger"/>
    <trip id="67" depart="65.74" from="-318747848#3" to="1339655667#0" type="passenger"/>
    <trip id="68" depart="66.72" from="619147739#3" to="-315658896#2" type="passenger"/>
    <trip id="69" depart="67.70" from="78628775#2" to="619147739#6" type="passenger"/>
    <trip id="70" depart="68.68" from="773060732#4" to="379943753#1" type="passenger"/>
    <trip id="71" depart="69.67" from="315658884#4" to="777881144#1" type="passenger"/>
    <trip id="72" depart="70.65" from="-318747848#5" to="777881145" type="passenger"/>
    <trip id="73" depart="71.63" from="315658897#0" to="777881144#1" type="passenger"/>
    <trip id="74" depart="72.61" from="-315658897#1" to="619147739#5" type="passenger"/>
    <trip id="75" depart="73.59" from="-315658884#1" to="1339655667#1" type="passenger"/>
    <trip id="76" depart="74.57" from="773060732#2" to="-351672100#0" type="passenger"/>
    <trip id="77" depart="75.55" from="-770860548#2" to="379943753#1" type="passenger"/>
    <trip id="78" depart="76.53" from="1339697076#0" to="1339697076#1" type="passenger"/>
    <trip id="79" depart="77.52" from="78628775#0" to="-315658896#1" type="passenger"/>
    <trip id="80" depart="78.50" from="-315658896#3" to="-315658884#2" type="passenger"/>
    <trip id="81" depart="79.48" from="318747848#3" to="1339655667#1" type="passenger"/>
    <trip id="82" depart="80.46" from="78628775#1" to="770860565" type="passenger"/>
    <trip id="83" depart="81.44" from="821457682#1" to="-315658897#0" type="passenger"/>
    <trip id="84" depart="82.42" from="315658896#1" to="-315658897#0" type="passenger"/>
    <trip id="85" depart="83.40" from="-770860548#2" to="-318747848#6" type="passenger"/>
    <trip id="86" depart="84.38" from="333557072#0" to="-315658884#1" type="passenger"/>
    <trip id="87" depart="85.37" from="318747848#5" to="318747848#4" type="passenger"/>
    <trip id="88" depart="86.35" from="712288152#1" to="318747848#3" type="passenger"/>
    <trip id="89" depart="87.33" from="318747848#7" to="-315658896#1" type="passenger"/>
    <trip id="90" depart="88.31" from="773060732#1" to="315658896#1" type="passenger"/>
    <trip id="91" depart="89.29" from="384030401#0" to="37403486#1" type="passenger"/>
    <trip id="92" depart="90.27" from="1339697075#4" to="1339697074" type="passenger"/>
    <trip id="93" depart="91.25" from="619147739#1" to="-315658896#1" type="passenger"/>
    <trip id="94" depart="92.23" from="773060732#4" to="315658896#1" type="passenger"/>
    <trip id="95" depart="93.22" from="619147739#2" to="1339655667#0" type="passenger"/>
    <trip id="96" depart="94.20" from="-318747848#3" to="1339697075#3" type="passenger"/>
    <trip id="97" depart="95.18" from="333557072#2" to="379943755#1" type="passenger"/>
    <trip id="98" depart="96.16" from="-315658884#1" to="315658884#1" type="passenger"/>
    <trip id="99" depart="97.14" from="619147739#4" to="619147739#5" type="passenger"/>
    <trip id="100" depart="98.12" from="712288152#1" to="-351672100#1" type="passenger"/>
    <trip id="101" depart="99.10" from="619147739#3" to="-318747848#7" type="passenger"/>
    <trip id="102" depart="100.08" from="773060732#3" to="-351672100#0" type="passenger"/>
    <trip id="103" depart="101.06" from="318747848#3" to="-318747848#7" type="passenger"/>
    <trip id="104" depart="102.05" from="-651817398#2" to="-318747848#6" type="passenger"/>
    <trip id="105" depart="103.03" from="315658897#0" to="712288152#1" type="passenger"/>
    <trip id="106" depart="104.01" from="777881144#0" to="315658884#3" type="passenger"/>
    <trip id="107" depart="104.99" from="315658897#0" to="1339697075#6" type="passenger"/>
    <trip id="108" depart="105.97" from="773060732#2" to="1339697075#5" type="passenger"/>
    <trip id="109" depart="106.95" from="712288152#2" to="-315658884#4" type="passenger"/>
    <trip id="110" depart="107.93" from="315658884#4" to="-318747848#4" type="passenger"/>
    <trip id="111" depart="108.91" from="773060732#0" to="379943753#0" type="passenger"/>
    <trip id="112" depart="109.90" from="351672100#0" to="1339697075#2" type="passenger"/>
    <trip id="113" depart="110.88" from="619147739#1" to="-351672100#1" type="passenger"/>
    <trip id="114" depart="111.86" from="379943753#1" to="-464763971" type="passenger"/>
    <trip id="115" depart="112.84" from="78628775#1" to="379943753#1" type="passenger"/>
    <trip id="116" depart="113.82" from="777881144#0" to="379943753#1" type="passenger"/>
    <trip id="117" depart="114.80" from="318747848#4" to="777881145" type="passenger"/>
    <trip id="118" depart="115.78" from="773060732#2" to="777881144#1" type="passenger"/>
    <trip id="119" depart="116.76" from="773060732#2" to="-37403486#1" type="passenger"/>
    <trip id="120" depart="117.75" from="619147739#2" to="777881145" type="passenger"/>
    <trip id="121" depart="118.73" from="318747848#7" to="318747848#5" type="passenger"/>
    <trip id="122" depart="119.71" from="-651817398#5" to="-351672100#0" type="passenger"/>
    <trip id="123" depart="120.69" from="619147739#4" to="379943753#1" type="passenger"/>
    <trip id="124" depart="121.67" from="770860565" to="-651818430" type="passenger"/>
    <trip id="125" depart="122.65" from="1339655670" to="1339697075#3" type="passenger"/>
    <trip id="126" depart="123.63" from="773060732#0" to="777881144#0" type="passenger"/>
    <trip id="127" depart="124.61" from="-651817398#0" to="384030395" type="passenger"/>
    <trip id="128" depart="125.60" from="315658897#0" to="1339697075#3" type="passenger"/>
    <trip id="129" depart="126.58" from="-318747848#2" to="955312947" type="passenger"/>
    <trip id="130" depart="127.56" from="-770860549" to="1339697075#2" type="passenger"/>
    <trip id="131" depart="128.54" from="379943753#1" to="318747848#4" type="passenger"/>
    <trip id="132" depart="129.52" from="315658884#1" to="955312947" type="passenger"/>
    <trip id="133" depart="130.50" from="712288152#1" to="-384030401#0" type="passenger"/>
    <trip id="134" depart="131.48" from="619147739#5" to="-315658884#3" type="passenger"/>
    <trip id="135" depart="132.46" from="333557072#0" to="315658897#2" type="passenger"/>
    <trip id="136" depart="133.44" from="619147739#2" to="-315658897#1" type="passenger"/>
    <trip id="137" depart="134.43" from="78628775#1" to="1339655667#0" type="passenger"/>
    <trip id="138" depart="135.41" from="-315658884#3" to="-315658884#1" type="passenger"/>
    <trip id="139" depart="136.39" from="315658884#3" to="-315658896#2" type="passenger"/>
    <trip id="140" depart="137.37" from="619147739#3" to="1339697075#6" type="passenger"/>
    <trip id="141" depart="138.35" from="-318747848#3" to="-315658884#3" type="passenger"/>
    <trip id="142" depart="139.33" from="318747848#6" to="318747848#5" type="passenger"/>
    <trip id="143" depart="140.31" from="770860548#0" to="-351672100#4" type="passenger"/>
    <trip id="144" depart="141.29" from="-770860565" to="318747848#7" type="passenger"/>
    <trip id="145" depart="142.28" from="-651817398#5" to="318747848#3" type="passenger"/>
    <trip id="146" depart="143.26" from="-315658884#4" to="-351672100#0" type="passenger"/>
    <trip id="147" depart="144.24" from="619147739#0" to="315658884#3" type="passenger"/>
    <trip id="148" depart="145.22" from="821457682#1" to="619147739#6" type="passenger"/>
    <trip id="149" depart="146.20" from="-315658897#2" to="-384030401#0" type="passenger"/>
    <trip id="150" depart="147.18" from="379943753#0" to="318747848#6" type="passenger"/>
    <trip id="151" depart="148.16" from="315658884#2" to="-318747848#4" type="passenger"/>
    <trip id="152" depart="149.14" from="315658897#0" to="777881147#1" type="passenger"/>
    <trip id="153" depart="150.13" from="-651817398#5" to="619147739#5" type="passenger"/>
    <trip id="154" depart="151.11" from="78628775#1" to="712288152#0" type="passenger"/>
    <trip id="155" depart="152.09" from="-770860549" to="-384030401#0" type="passenger"/>
    <trip id="156" depart="153.07" from="773060732#4" to="315658884#1" type="passenger"/>
    <trip id="157" depart="154.05" from="-712288152#0" to="428544127" type="passenger"/>
    <trip id="158" depart="155.03" from="37403486#2" to="1339697075#6" type="passenger"/>
    <trip id="159" depart="156.01" from="379943753#1" to="619147739#4" type="passenger"/>
    <trip id="160" depart="156.99" from="821457682#0" to="318747848#7" type="passenger"/>
    <trip id="161" depart="157.98" from="777881144#0" to="712288152#0" type="passenger"/>
    <trip id="162" depart="158.96" from="-651817398#3" to="712288152#2" type="passenger"/>
    <trip id="163" depart="159.94" from="-770860549" to="-315658884#4" type="passenger"/>
    <trip id="164" depart="160.92" from="318747848#6" to="318747848#3" type="passenger"/>
    <trip id="165" depart="161.90" from="712288152#0" to="-37403486#2" type="passenger"/>
    <trip id="166" depart="162.88" from="773060732#2" to="1339697075#3" type="passenger"/>
    <trip id="167" depart="163.86" from="-651817398#4" to="-1339655670" type="passenger"/>
    <trip id="168" depart="164.84" from="318747848#6" to="-315658884#2" type="passenger"/>
    <trip id="169" depart="165.82" from="-651817398#5" to="-315658897#0" type="passenger"/>
    <trip id="170" depart="166.81" from="-315658896#2" to="-37403486#2" type="passenger"/>
    <trip id="171" depart="167.79" from="351672100#0" to="-464763971" type="passenger"/>
    <trip id="172" depart="168.77" from="-315658896#2" to="712288152#1" type="passenger"/>
    <trip id="173" depart="169.75" from="315658897#0" to="379943753#1" type="passenger"/>
    <trip id="174" depart="170.73" from="773060732#4" to="-464763971" type="passenger"/>
    <trip id="175" depart="171.71" from="-712288152#2" to="-351672100#4" type="passenger"/>
    <trip id="176" depart="172.69" from="-651817398#1" to="619147739#6" type="passenger"/>
    <trip id="177" depart="173.67" from="-318747848#4" to="315658897#1" type="passenger"/>
    <trip id="178" depart="174.66" from="-770860548#2" to="-651818430" type="passenger"/>
    <trip id="179" depart="175.64" from="-770860565" to="384030395" type="passenger"/>
    <trip id="180" depart="176.62" from="821457682#1" to="-384030401#0" type="passenger"/>
    <trip id="181" depart="177.60" from="318747848#2" to="-315658897#0" type="passenger"/>
    <trip id="182" depart="178.58" from="-384030395" to="-384030401#0" type="passenger"/>
    <trip id="183" depart="179.56" from="-315658884#1" to="315658897#0" type="passenger"/>
    <trip id="184" depart="180.54" from="-315658884#2" to="318747848#6" type="passenger"/>
    <trip id="185" depart="181.52" from="-770860548#1" to="-770860549" type="passenger"/>
    <trip id="186" depart="182.51" from="619147739#0" to="619147739#5" type="passenger"/>
    <trip id="187" depart="183.49" from="315658897#1" to="1339697075#5" type="passenger"/>
    <trip id="188" depart="184.47" from="-315658884#2" to="318747848#3" type="passenger"/>
    <trip id="189" depart="185.45" from="318747848#6" to="-318747848#5" type="passenger"/>
    <trip id="190" depart="186.43" from="-651817398#0" to="318747848#7" type="passenger"/>
    <trip id="191" depart="187.41" from="773060732#0" to="1339697075#2" type="passenger"/>
    <trip id="192" depart="188.39" from="333557072#1" to="78628770#1" type="passenger"/>
    <trip id="193" depart="189.37" from="712288152#0" to="777881145" type="passenger"/>
    <trip id="194" depart="190.36" from="619147739#3" to="-37403486#2" type="passenger"/>
    <trip id="195" depart="191.34" from="651817398#1" to="651817398#1" type="passenger"/>
    <trip id="196" depart="192.32" from="-315658897#0" to="619147739#4" type="passenger"/>
    <trip id="197" depart="193.30" from="78628775#2" to="778973690" type="passenger"/>
    <trip id="198" depart="194.28" from="-712288152#0" to="1339697074" type="passenger"/>
    <trip id="199" depart="195.26" from="-712288152#2" to="-712288152#0" type="passenger"/>
    <trip id="200" depart="196.24" from="318747848#4" to="315658896#1" type="passenger"/>
    <trip id="201" depart="197.22" from="-351672100#1" to="-351672100#0" type="passenger"/>
    <trip id="202" depart="198.20" from="-315658896#3" to="315658897#0" type="passenger"/>
    <trip id="203" depart="199.19" from="379943753#1" to="318747848#3" type="passenger"/>
    <trip id="204" depart="200.17" from="333557072#2" to="315658897#2" type="passenger"/>
    <trip id="205" depart="201.15" from="318747848#7" to="315658884#3" type="passenger"/>
    <trip id="206" depart="202.13" from="379943753#1" to="318747848#6" type="passenger"/>
    <trip id="207" depart="203.11" from="770860549" to="-315658884#2" type="passenger"/>
    <trip id="208" depart="204.09" from="333557072#2" to="1339697075#5" type="passenger"/>
    <trip id="209" depart="205.07" from="78628775#0" to="318747848#7" type="passenger"/>
    <trip id="210" depart="206.05" from="-384030401#1" to="-384030401#0" type="passenger"/>
    <trip id="211" depart="207.04" from="318747848#7" to="-315658884#3" type="passenger"/>
    <trip id="212" depart="208.02" from="-318747848#5" to="1339655667#0" type="passenger"/>
    <trip id="213" depart="209.00" from="315658896#2" to="-318747848#4" type="passenger"/>
    <trip id="214" depart="209.98" from="315658884#2" to="-318747848#7" type="passenger"/>
    <trip id="215" depart="210.96" from="-315658896#3" to="315658897#0" type="passenger"/>
    <trip id="216" depart="211.94" from="-651817398#0" to="-384030401#1" type="passenger"/>
    <trip id="217" depart="212.92" from="770860548#0" to="-384030401#1" type="passenger"/>
    <trip id="218" depart="213.90" from="-651817398#5" to="-712288152#2" type="passenger"/>
    <trip id="219" depart="214.89" from="770860549" to="379943753#1" type="passenger"/>
    <trip id="220" depart="215.87" from="773060732#3" to="1339697075#2" type="passenger"/>
    <trip id="221" depart="216.85" from="-318747848#6" to="-351672100#1" type="passenger"/>
    <trip id="222" depart="217.83" from="-770860565" to="-37403486#2" type="passenger"/>
    <trip id="223" depart="218.81" from="712288152#0" to="1339697075#3" type="passenger"/>
    <trip id="224" depart="219.79" from="773060732#3" to="1339697076#1" type="passenger"/>
    <trip id="225" depart="220.77" from="-315658897#0" to="-318747848#7" type="passenger"/>
    <trip id="226" depart="221.75" from="651817398#4" to="651817398#5" type="passenger"/>
    <trip id="227" depart="222.73" from="712288152#1" to="-318747848#4" type="passenger"/>
    <trip id="228" depart="223.72" from="712288152#0" to="955312947" type="passenger"/>
    <trip id="229" depart="224.70" from="619147739#5" to="-315658884#2" type="passenger"/>
    <trip id="230" depart="225.68" from="-318747848#7" to="-351672100#0" type="passenger"/>
    <trip id="231" depart="226.66" from="-651817398#1" to="-315658896#1" type="passenger"/>
    <trip id="232" depart="227.64" from="-315658884#4" to="955312947" type="passenger"/>
    <trip id="233" depart="228.62" from="-315658897#0" to="777881147#1" type="passenger"/>
    <trip id="234" depart="229.60" from="-651817398#3" to="-712288152#0" type="passenger"/>
    <trip id="235" depart="230.58" from="78628770#1" to="-315658896#1" type="passenger"/>
    <trip id="236" depart="231.57" from="773060732#2" to="-37403486#2" type="passenger"/>
    <trip id="237" depart="232.55" from="315658884#1" to="777881145" type="passenger"/>
    <trip id="238" depart="233.53" from="773060732#0" to="-315658896#1" type="passenger"/>
    <trip id="239" depart="234.51" from="-651817398#4" to="778973690" type="passenger"/>
    <trip id="240" depart="235.49" from="315658896#2" to="619147739#6" type="passenger"/>
    <trip id="241" depart="236.47" from="-315658896#3" to="1339655667#1" type="passenger"/>
    <trip id="242" depart="237.45" from="-651817398#5" to="-712288152#1" type="passenger"/>
    <trip id="243" depart="238.43" from="315658884#3" to="315658896#3" type="passenger"/>
    <trip id="244" depart="239.42" from="333557072#2" to="1339697075#4" type="passenger"/>
    <trip id="245" depart="240.40" from="-315658896#2" to="955312947" type="passenger"/>
    <trip id="246" depart="241.38" from="78628770#1" to="315658884#2" type="passenger"/>
    <trip id="247" depart="242.36" from="712288152#0" to="1339697075#1" type="passenger"/>
    <trip id="248" depart="243.34" from="773060732#3" to="778973690" type="passenger"/>
    <trip id="249" depart="244.32" from="619147739#5" to="-318747848#3" type="passenger"/>
    <trip id="250" depart="245.30" from="315658896#2" to="315658897#2" type="passenger"/>
    <trip id="251" depart="246.28" from="-770860549" to="712288152#1" type="passenger"/>
    <trip id="252" depart="247.27" from="-651817398#0" to="-315658884#4" type="passenger"/>
    <trip id="253" depart="248.25" from="-712288152#1" to="1339697076#0" type="passenger"/>
    <trip id="254" depart="249.23" from="-318747848#5" to="318747848#3" type="passenger"/>
    <trip id="255" depart="250.21" from="770860549" to="-770860548#1" type="passenger"/>
    <trip id="256" depart="251.19" from="384030401#1" to="384030401#1" type="passenger"/>
    <trip id="257" depart="252.17" from="712288152#2" to="-351672100#0" type="passenger"/>
    <trip id="258" depart="253.15" from="315658884#4" to="318747848#5" type="passenger"/>
    <trip id="259" depart="254.13" from="773060732#1" to="-318747848#3" type="passenger"/>
    <trip id="260" depart="255.11" from="-315658897#1" to="1339697076#1" type="passenger"/>
    <trip id="261" depart="256.10" from="712288152#0" to="315658884#4" type="passenger"/>
    <trip id="262" depart="257.08" from="-651817398#0" to="1339697075#2" type="passenger"/>
    <trip id="263" depart="258.06" from="315658897#1" to="-315658896#2" type="passenger"/>
    <trip id="264" depart="259.04" from="-315658884#2" to="318747848#6" type="passenger"/>
    <trip id="265" depart="260.02" from="-318747848#4" to="-384030401#1" type="passenger"/>
    <trip id="266" depart="261.00" from="-651817398#5" to="315658896#1" type="passenger"/>
    <trip id="267" depart="261.98" from="78628775#1" to="-315658884#3" type="passenger"/>
    <trip id="268" depart="262.96" from="318747848#5" to="1339697074" type="passenger"/>
    <trip id="269" depart="263.95" from="379943753#0" to="-315658884#4" type="passenger"/>
    <trip id="270" depart="264.93" from="-318747848#6" to="-384030401#0" type="passenger"/>
    <trip id="271" depart="265.91" from="-315658896#2" to="428544127" type="passenger"/>
    <trip id="272" depart="266.89" from="318747848#2" to="-351672100#0" type="passenger"/>
    <trip id="273" depart="267.87" from="-315658884#4" to="1339655667#1" type="passenger"/>
    <trip id="274" depart="268.85" from="-651817398#5" to="1339697076#0" type="passenger"/>
    <trip id="275" depart="269.83" from="712288152#0" to="619147739#5" type="passenger"/>
    <trip id="276" depart="270.81" from="315658884#2" to="955312947" type="passenger"/>
    <trip id="277" depart="271.80" from="-318747848#6" to="1339697076#0" type="passenger"/>
    <trip id="278" depart="272.78" from="-318747848#3" to="1339697075#2" type="passenger"/>
    <trip id="279" depart="273.76" from="37403486#1" to="1339697075#5" type="passenger"/>
    <trip id="280" depart="274.74" from="315658884#1" to="-318747848#5" type="passenger"/>
    <trip id="281" depart="275.72" from="-651817398#5" to="379943753#0" type="passenger"/>
    <trip id="282" depart="276.70" from="-651817398#1" to="-384030401#1" type="passenger"/>
    <trip id="283" depart="277.68" from="770860565" to="379943753#1" type="passenger"/>
    <trip id="284" depart="278.66" from="318747848#2" to="778973690" type="passenger"/>
    <trip id="285" depart="279.65" from="315658884#4" to="315658897#1" type="passenger"/>
    <trip id="286" depart="280.63" from="712288152#0" to="315658896#1" type="passenger"/>
    <trip id="287" depart="281.61" from="379943753#0" to="318747848#6" type="passenger"/>
    <trip id="288" depart="282.59" from="-651817398#2" to="1339697076#0" type="passenger"/>
    <trip id="289" depart="283.57" from="619147739#4" to="1339697074" type="passenger"/>
    <trip id="290" depart="284.55" from="-318747848#2" to="955312947" type="passenger"/>
    <trip id="291" depart="285.53" from="-651817398#4" to="1339655667#0" type="passenger"/>
    <trip id="292" depart="286.51" from="333557072#3" to="712288152#2" type="passenger"/>
    <trip id="293" depart="287.49" from="-651817398#1" to="1339697075#5" type="passenger"/>
    <trip id="294" depart="288.48" from="770860548#1" to="315658897#2" type="passenger"/>
    <trip id="295" depart="289.46" from="-955312947" to="318747848#5" type="passenger"/>
    <trip id="296" depart="290.44" from="333557072#2" to="-384030401#0" type="passenger"/>
    <trip id="297" depart="291.42" from="-318747848#2" to="-315658897#0" type="passenger"/>
    <trip id="298" depart="292.40" from="-651817398#4" to="-712288152#0" type="passenger"/>
    <trip id="299" depart="293.38" from="333557072#3" to="379943753#1" type="passenger"/>
    <trip id="300" depart="294.36" from="78628775#1" to="777881144#1" type="passenger"/>
    <trip id="301" depart="295.34" from="770860548#0" to="379943753#1" type="passenger"/>
    <trip id="302" depart="296.33" from="318747848#5" to="777881144#1" type="passenger"/>
    <trip id="303" depart="297.31" from="318747848#6" to="619147739#6" type="passenger"/>
    <trip id="304" depart="298.29" from="-651817398#5" to="318747848#7" type="passenger"/>
    <trip id="305" depart="299.27" from="379943753#1" to="1339697075#4" type="passenger"/>
    <trip id="306" depart="300.25" from="770860549" to="-315658896#2" type="passenger"/>
    <trip id="307" depart="301.23" from="-770860548#1" to="-318747848#4" type="passenger"/>
    <trip id="308" depart="302.21" from="619147739#0" to="712288152#2" type="passenger"/>
    <trip id="309" depart="303.19" from="821457682#0" to="318747848#6" type="passenger"/>
    <trip id="310" depart="304.18" from="770860549" to="-318747848#2" type="passenger"/>
    <trip id="311" depart="305.16" from="-315658897#1" to="-318747848#7" type="passenger"/>
    <trip id="312" depart="306.14" from="770860565" to="-770860549" type="passenger"/>
    <trip id="313" depart="307.12" from="315658897#0" to="-464763971" type="passenger"/>
    <trip id="314" depart="308.10" from="-315658897#0" to="-315658884#4" type="passenger"/>
    <trip id="315" depart="309.08" from="619147739#1" to="318747848#7" type="passenger"/>
    <trip id="316" depart="310.06" from="315658896#2" to="712288152#0" type="passenger"/>
    <trip id="317" depart="311.04" from="-315658897#0" to="-315658897#0" type="passenger"/>
    <trip id="318" depart="312.03" from="-37403486#2" to="-384030401#0" type="passenger"/>
    <trip id="319" depart="313.01" from="773060732#0" to="619147739#6" type="passenger"/>
    <trip id="320" depart="313.99" from="773060732#0" to="773060732#3" type="passenger"/>
    <trip id="321" depart="314.97" from="619147739#5" to="777881147#1" type="passenger"/>
    <trip id="322" depart="315.95" from="-318747848#2" to="315658897#2" type="passenger"/>
    <trip id="323" depart="316.93" from="-651817398#1" to="-464763971" type="passenger"/>