<?xml version="1.0" encoding="UTF-8"?>

<!-- generated on 2026-04-17 02:57:58.242194 by Eclipse SUMO randomTrips.py v1.26.0
<configuration>
    <net-file value="/Users/junlee/Desktop/2026-1/js/result/tradeoff_pet_top12_seed12_60min_20260417_025716/sumo_nets/cw_6213/network.net.xml"/>
    <output-trip-file value="/Users/junlee/Desktop/2026-1/js/result/tradeoff_pet_top12_seed12_60min_20260417_025716/sumo_nets/cw_6213/routes_seed48.trips.xml"/>
    <route-file value="/Users/junlee/Desktop/2026-1/js/result/tradeoff_pet_top12_seed12_60min_20260417_025716/sumo_nets/cw_6213/routes_seed48.rou.xml"/>
    <vehicle-class value="passenger"/>
    <seed value="48"/>
    <period value="0.9734112795568768"/>
</configuration>
-->

<routes xmlns:xsi="http://www.w3.org/2001/XMLSchema-instance" xsi:noNamespaceSchemaLocation="http://sumo.dlr.de/xsd/routes_file.xsd">
    <vType id="passenger" vClass="passenger"/>
    <trip id="0" depart="0.00" from="318747848#7" to="-351672100#0" type="passenger"/>
    <trip id="1" depart="0.97" from="-651817398#1" to="315658897#2" type="passenger"/>
    <trip id="2" depart="1.95" from="770860548#1" to="-351672100#2" type="passenger"/>
    <trip id="3" depart="2.92" from="-651817398#0" to="-315658897#1" type="passenger"/>
    <trip id="4" depart="3.89" from="-315658897#0" to="315658897#1" type="passenger"/>
    <trip id="5" depart="4.87" from="-955312947" to="1339655667#0" type="passenger"/>
    <trip id="6" depart="5.84" from="379943753#0" to="777881147#1" type="passenger"/>
    <trip id="7" depart="6.81" from="-318747848#7" to="379943753#0" type="passenger"/>
    <trip id="8" depart="7.79" from="-712288152#1" to="1339697075#2" type="passenger"/>
    <trip id="9" depart="8.76" from="-770860548#1" to="-770860548#0" type="passenger"/>
    <trip id="10" depart="9.73" from="315658897#1" to="-318747848#6" type="passenger"/>
    <trip id="11" depart="10.71" from="-318747848#5" to="-351672100#1" type="passenger"/>
    <trip id="12" depart="11.68" from="-770860565" to="315658884#1" type="passenger"/>
    <trip id="13" depart="12.65" from="651817398#1" to="651817398#2" type="passenger"/>
    <trip id="14" depart="13.63" from="384030401#1" to="1339697075#6" type="passenger"/>
    <trip id="15" depart="14.60" from="712288152#2" to="777881145" type="passenger"/>
    <trip id="16" depart="15.57" from="-351672100#2" to="-351672100#2" type="passenger"/>
    <trip id="17" depart="16.55" from="333557072#2" to="619147739#4" type="passenger"/>
    <trip id="18" depart="17.52" from="78628775#2" to="1339697075#5" type="passenger"/>
    <trip id="19" depart="18.49" from="318747848#4" to="-315658884#4" type="passenger"/>
    <trip id="20" depart="19.47" from="-318747848#2" to="-315658884#3" type="passenger"/>
    <trip id="21" depart="20.44" from="-318747848#3" to="315658884#3" type="passenger"/>
    <trip id="22" depart="21.42" from="333557072#3" to="315658896#3" type="passenger"/>
    <trip id="23" depart="22.39" from="351672100#1" to="-384030401#1" type="passenger"/>
    <trip id="24" depart="23.36" from="-651817398#3" to="-315658884#3" type="passenger"/>
    <trip id="25" depart="24.34" from="821457682#0" to="1339697076#1" type="passenger"/>
    <trip id="26" depart="25.31" from="-770860565" to="78628775#2" type="passenger"/>
    <trip id="27" depart="26.28" from="379943755#1" to="-318747848#2" type="passenger"/>
    <trip id="28" depart="27.26" from="-651817398#2" to="777881147#1" type="passenger"/>
    <trip id="29" depart="28.23" from="379943753#0" to="-315658897#1" type="passenger"/>
    <trip id="30" depart="29.20" from="777881144#0" to="-318747848#5" type="passenger"/>
    <trip id="31" depart="30.18" from="-315658897#2" to="712288152#1" type="passenger"/>
    <trip id="32" depart="31.15" from="-318747848#6" to="712288152#1" type="passenger"/>
    <trip id="33" depart="32.12" from="-318747848#3" to="1339697075#3" type="passenger"/>
    <trip id="34" depart="33.10" from="315658896#2" to="-384030401#0" type="passenger"/>
    <trip id="35" depart="34.07" from="-315658884#2" to="315658884#4" type="passenger"/>
    <trip id="36" depart="35.04" from="-384030395" to="-384030401#0" type="passenger"/>
    <trip id="37" depart="36.02" from="78628775#2" to="1339655667#0" type="passenger"/>
    <trip id="38" depart="36.99" from="773060732#4" to="-315658884#4" type="passenger"/>
    <trip id="39" depart="37.96" from="379943755#1" to="318747848#6" type="passenger"/>
    <trip id="40" depart="38.94" from="318747848#4" to="318747848#6" type="passenger"/>
    <trip id="41" depart="39.91" from="351672100#4" to="1339697075#3" type="passenger"/>
    <trip id="42" depart="40.88" from="-651817398#1" to="-318747848#4" type="passenger"/>
    <trip id="43" depart="41.86" from="78628775#1" to="379943755#1" type="passenger"/>
    <trip id="44" depart="42.83" from="770860549" to="1339697076#1" type="passenger"/>
    <trip id="45" depart="43.80" from="773060732#0" to="1339655667#1" type="passenger"/>
    <trip id="46" depart="44.78" from="619147739#0" to="1339697076#0" type="passenger"/>
    <trip id="47" depart="45.75" from="712288152#2" to="-464763971" type="passenger"/>
    <trip id="48" depart="46.72" from="712288152#0" to="-315658897#1" type="passenger"/>
    <trip id="49" depart="47.70" from="773060732#0" to="315658884#1" type="passenger"/>
    <trip id="50" depart="48.67" from="619147739#0" to="712288152#0" type="passenger"/>
    <trip id="51" depart="49.64" from="-315658897#2" to="1339697075#6" type="passenger"/>
    <trip id="52" depart="50.62" from="-770860548#2" to="821457682#1" type="passenger"/>
    <trip id="53" depart="51.59" from="770860548#1" to="-315658897#1" type="passenger"/>
    <trip id="54" depart="52.56" from="-315658896#3" to="318747848#5" type="passenger"/>
    <trip id="55" depart="53.54" from="-315658884#1" to="619147739#3" type="passenger"/>
    <trip id="56" depart="54.51" from="712288152#1" to="1339697076#0" type="passenger"/>
    <trip id="57" depart="55.48" from="-770860549" to="1339697076#0" type="passenger"/>
    <trip id="58" depart="56.46" from="-770860549" to="315658896#2" type="passenger"/>
    <trip id="59" depart="57.43" from="318747848#6" to="-315658884#1" type="passenger"/>
    <trip id="60" depart="58.40" from="773060732#4" to="318747848#5" type="passenger"/>
    <trip id="61" depart="59.38" from="351672100#2" to="428544127" type="passenger"/>
    <trip id="62" depart="60.35" from="619147739#3" to="1339697075#2" type="passenger"/>
    <trip id="63" depart="61.32" from="318747848#6" to="315658884#4" type="passenger"/>
    <trip id="64" depart="62.30" from="712288152#1" to="379943755#1" type="passenger"/>
    <trip id="65" depart="63.27" from="773060732#0" to="-318747848#3" type="passenger"/>
    <trip id="66" depart="64.25" from="315658884#4" to="-351672100#0" type="passenger"/>
    <trip id="67" depart="65.22" from="770860565" to="1339697075#2" type="passenger"/>
    <trip id="68" depart="66.19" from="-315658897#2" to="-37403486#1" type="passenger"/>
    <trip id="69" depart="67.17" from="315658896#1" to="-315658897#0" type="passenger"/>
    <trip id="70" depart="68.14" from="777881144#0" to="318747848#3" type="passenger"/>
    <trip id="71" depart="69.11" from="770860565" to="1339697075#6" type="passenger"/>
    <trip id="72" depart="70.09" from="78628770#1" to="-1339655670" type="passenger"/>
    <trip id="73" depart="71.06" from="315658884#2" to="619147739#6" type="passenger"/>
    <trip id="74" depart="72.03" from="821457682#1" to="-318747848#6" type="passenger"/>
    <trip id="75" depart="73.01" from="-651817398#3" to="-712288152#1" type="passenger"/>
    <trip id="76" depart="73.98" from="-318747848#6" to="315658884#2" type="passenger"/>
    <trip id="77" depart="74.95" from="821457682#1" to="-351672100#4" type="passenger"/>
    <trip id="78" depart="75.93" from="773060732#4" to="619147739#3" type="passenger"/>
    <trip id="79" depart="76.90" from="821457682#0" to="777881147#1" type="passenger"/>
    <trip id="80" depart="77.87" from="773060732#4" to="619147739#5" type="passenger"/>
    <trip id="81" depart="78.85" from="773060732#1" to="619147739#3" type="passenger"/>
    <trip id="82" depart="79.82" from="-651817398#0" to="315658896#3" type="passenger"/>
    <trip id="83" depart="80.79" from="619147739#5" to="1339697075#2" type="passenger"/>
    <trip id="84" depart="81.77" from="78628775#0" to="1339697075#4" type="passenger"/>
    <trip id="85" depart="82.74" from="333557072#0" to="777881145" type="passenger"/>
    <trip id="86" depart="83.71" from="-318747848#2" to="955312947" type="passenger"/>
    <trip id="87" depart="84.69" from="333557072#3" to="333557072#5" type="passenger"/>
    <trip id="88" depart="85.66" from="-770860549" to="379943755#1" type="passenger"/>
    <trip id="89" depart="86.63" from="-770860548#2" to="1339697074" type="passenger"/>
    <trip id="90" depart="87.61" from="318747848#5" to="619147739#3" type="passenger"/>
    <trip id="91" depart="88.58" from="1339697075#4" to="1339697075#4" type="passenger"/>
    <trip id="92" depart="89.55" from="619147739#1" to="384030395" type="passenger"/>
    <trip id="93" depart="90.53" from="821457682#1" to="619147739#4" type="passenger"/>
    <trip id="94" depart="91.50" from="379943753#1" to="1339697075#2" type="passenger"/>
    <trip id="95" depart="92.47" from="712288152#0" to="379943753#0" type="passenger"/>
    <trip id="96" depart="93.45" from="619147739#4" to="315658884#4" type="passenger"/>
    <trip id="97" depart="94.42" from="315658884#4" to="1339697075#2" type="passenger"/>
    <trip id="98" depart="95.39" from="770860549" to="777881147#1" type="passenger"/>
    <trip id="99" depart="96.37" from="78628775#1" to="318747848#7" type="passenger"/>
    <trip id="100" depart="97.34" from="-651817398#2" to="1339697074" type="passenger"/>
    <trip id="101" depart="98.31" from="-770860565" to="318747848#3" type="passenger"/>
    <trip id="102" depart="99.29" from="1339697075#3" to="1339697074" type="passenger"/>
    <trip id="103" depart="100.26" from="770860565" to="-351672100#2" type="passenger"/>
    <trip id="104" depart="101.23" from="-315658897#2" to="-315658896#1" type="passenger"/>
    <trip id="105" depart="102.21" from="315658884#3" to="-318747848#4" type="passenger"/>
    <trip id="106" depart="103.18" from="-770860548#2" to="78628775#2" type="passenger"/>
    <trip id="107" depart="104.16" from="-651817398#3" to="619147739#1" type="passenger"/>
    <trip id="108" depart="105.13" from="315658884#4" to="712288152#1" type="passenger"/>
    <trip id="109" depart="106.10" from="712288152#2" to="712288152#2" type="passenger"/>
    <trip id="110" depart="107.08" from="821457682#1" to="1339697076#0" type="passenger"/>
    <trip id="111" depart="108.05" from="-315658896#2" to="315658896#3" type="passenger"/>
    <trip id="112" depart="109.02" from="315658897#0" to="315658896#3" type="passenger"/>
    <trip id="113" depart="110.00" from="-651817398#2" to="619147739#1" type="passenger"/>
    <trip id="114" depart="110.97" from="773060732#1" to="-351672100#0" type="passenger"/>
    <trip id="115" depart="111.94" from="-770860548#2" to="315658896#2" type="passenger"/>
    <trip id="116" depart="112.92" from="1339655667#0" to="-351672100#0" type="passenger"/>
    <trip id="117" depart="113.89" from="770860548#0" to="-384030401#0" type="passenger"/>
    <trip id="118" depart="114.86" from="379943753#1" to="384030395" type="passenger"/>
    <trip id="119" depart="115.84" from="315658897#0" to="-351672100#0" type="passenger"/>
    <trip id="120" depart="116.81" from="773060732#1" to="773060732#1" type="passenger"/>
    <trip id="121" depart="117.78" from="318747848#7" to="712288152#2" type="passenger"/>
    <trip id="122" depart="118.76" from="333557072#2" to="-315658884#4" type="passenger"/>
    <trip id="123" depart="119.73" from="777881144#0" to="315658884#1" type="passenger"/>
    <trip id="124" depart="120.70" from="770860565" to="-351672100#4" type="passenger"/>
    <trip id="125" depart="121.68" from="712288152#2" to="-384030401#0" type="passenger"/>
    <trip id="126" depart="122.65" from="-651817398#4" to="-315658897#1" type="passenger"/>
    <trip id="127" depart="123.62" from="821457682#0" to="-384030401#1" type="passenger"/>
    <trip id="128" depart="124.60" from="-778973690" to="37403486#2" type="passenger"/>
    <trip id="129" depart="125.57" from="773060732#0" to="315658896#1" type="passenger"/>
    <trip id="130" depart="126.54" from="-318747848#3" to="315658896#3" type="passenger"/>
    <trip id="131" depart="127.52" from="-770860548#2" to="315658884#3" type="passenger"/>
    <trip id="132" depart="128.49" from="-770860565" to="318747848#2" type="passenger"/>
    <trip id="133" depart="129.46" from="318747848#2" to="315658896#1" type="passenger"/>
    <trip id="134" depart="130.44" from="-315658896#2" to="315658897#1" type="passenger"/>
    <trip id="135" depart="131.41" from="318747848#5" to="315658897#1" type="passenger"/>
    <trip id="136" depart="132.38" from="-770860549" to="315658884#1" type="passenger"/>
    <trip id="137" depart="133.36" from="-651817398#1" to="777881145" type="passenger"/>
    <trip id="138" depart="134.33" from="-651817398#0" to="318747848#7" type="passenger"/>
    <trip id="139" depart="135.30" from="-315658897#2" to="-315658897#0" type="passenger"/>
    <trip id="140" depart="136.28" from="-651817398#0" to="379943753#0" type="passenger"/>
    <trip id="141" depart="137.25" from="-651817398#1" to="315658897#1" type="passenger"/>
    <trip id="142" depart="138.22" from="770860565" to="315658897#2" type="passenger"/>
    <trip id="143" depart="139.20" from="-770860565" to="821457682#1" type="passenger"/>
    <trip id="144" depart="140.17" from="-315658896#2" to="315658896#2" type="passenger"/>
    <trip id="145" depart="141.14" from="-651817398#4" to="318747848#6" type="passenger"/>
    <trip id="146" depart="142.12" from="379943753#0" to="318747848#6" type="passenger"/>
    <trip id="147" depart="143.09" from="770860548#0" to="619147739#3" type="passenger"/>
    <trip id="148" depart="144.06" from="-315658897#1" to="315658884#4" type="passenger"/>
    <trip id="149" depart="145.04" from="-315658896#3" to="-318747848#3" type="passenger"/>
    <trip id="150" depart="146.01" from="-770860565" to="-318747848#2" type="passenger"/>
    <trip id="151" depart="146.99" from="712288152#1" to="1339655667#0" type="passenger"/>
    <trip id="152" depart="147.96" from="315658896#1" to="-384030401#1" type="passenger"/>
    <trip id="153" depart="148.93" from="379943753#1" to="-315658897#0" type="passenger"/>
    <trip id="154" depart="149.91" from="315658884#4" to="778973690" type="passenger"/>
    <trip id="155" depart="150.88" from="-651817398#1" to="619147739#1" type="passenger"/>
    <trip id="156" depart="151.85" from="-318747848#3" to="-318747848#7" type="passenger"/>
    <trip id="157" depart="152.83" from="-318747848#3" to="315658884#2" type="passenger"/>
    <trip id="158" depart="153.80" from="-318747848#7" to="1339697075#5" type="passenger"/>
    <trip id="159" depart="154.77" from="-651817398#0" to="-315658896#2" type="passenger"/>
    <trip id="160" depart="155.75" from="-315658884#1" to="-318747848#4" type="passenger"/>
    <trip id="161" depart="156.72" from="351672100#4" to="778973690" type="passenger"/>
    <trip id="162" depart="157.69" from="318747848#5" to="1339697075#2" type="passenger"/>
    <trip id="163" depart="158.67" from="777881144#0" to="-318747848#2" type="passenger"/>
    <trip id="164" depart="159.64" from="-651817398#1" to="1339697075#2" type="passenger"/>
    <trip id="165" depart="160.61" from="773060732#1" to="315658884#3" type="passenger"/>
    <trip id="166" depart="161.59" from="773060732#3" to="318747848#7" type="passenger"/>
    <trip id="167" depart="162.56" from="-770860565" to="-315658896#2" type="passenger"/>
    <trip id="168" depart="163.53" from="315658884#4" to="1339697074" type="passenger"/>
    <trip id="169" depart="164.51" from="318747848#6" to="318747848#6" type="passenger"/>
    <trip id="170" depart="165.48" from="-318747848#6" to="1339697075#6" type="passenger"/>
    <trip id="171" depart="166.45" from="-318747848#2" to="-315658884#4" type="passenger"/>
    <trip id="172" depart="167.43" from="379943753#0" to="428544127" type="passenger"/>
    <trip id="173" depart="168.40" from="333557072#0" to="777881145" type="passenger"/>
    <trip id="174" depart="169.37" from="777881144#0" to="-384030401#1" type="passenger"/>
    <trip id="175" depart="170.35" from="78628775#2" to="-351672100#2" type="passenger"/>
    <trip id="176" depart="171.32" from="333557072#1" to="1339697075#6" type="passenger"/>
    <trip id="177" depart="172.29" from="619147739#2" to="777881144#1" type="passenger"/>
    <trip id="178" depart="173.27" from="351672100#4" to="1339697075#1" type="passenger"/>
    <trip id="179" depart="174.24" from="-712288152#2" to="-37403486#2" type="passenger"/>
    <trip id="180" depart="175.21" from="773060732#4" to="-315658884#2" type="passenger"/>
    <trip id="181" depart="176.19" from="770860548#1" to="-318747848#5" type="passenger"/>
    <trip id="182" depart="177.16" from="351672100#1" to="1339697075#4" type="passenger"/>
    <trip id="183" depart="178.13" from="773060732#2" to="315658896#3" type="passenger"/>
    <trip id="184" depart="179.11" from="318747848#6" to="1339697074" type="passenger"/>
    <trip id="185" depart="180.08" from="773060732#1" to="955312947" type="passenger"/>
    <trip id="186" depart="181.05" from="1339697075#1" to="1339697075#2" type="passenger"/>
    <trip id="187" depart="182.03" from="318747848#3" to="315658884#2" type="passenger"/>
    <trip id="188" depart="183.00" from="770860549" to="-384030401#0" type="passenger"/>
    <trip id="189" depart="183.97" from="-955312947" to="-464763971" type="passenger"/>
    <trip id="190" depart="184.95" from="333557072#3" to="777881144#1" type="passenger"/>
    <trip id="191" depart="185.92" from="-651817398#5" to="-315658884#4" type="passenger"/>
    <trip id="192" depart="186.89" from="379943755#1" to="-315658896#1" type="passenger"/>
    <trip id="193" depart="187.87" from="-315658897#0" to="-318747848#5" type="passenger"/>
    <trip id="194" depart="188.84" from="333557072#0" to="318747848#4" type="passenger"/>
    <trip id="195" depart="189.82" from="770860565" to="-651818430" type="passenger"/>
    <trip id="196" depart="190.79" from="-315658897#2" to="-315658884#1" type="passenger"/>
    <trip id="197" depart="191.76" from="-770860548#2" to="318747848#6" type="passenger"/>
    <trip id="198" depart="192.74" from="384030401#1" to="428544127" type="passenger"/>
    <trip id="199" depart="193.71" from="-955312947" to="619147739#3" type="passenger"/>
    <trip id="200" depart="194.68" from="315658884#2" to="384030395" type="passenger"/>
    <trip id="201" depart="195.66" from="78628770#1" to="-351672100#4" type="passenger"/>
    <trip id="202" depart="196.63" from="619147739#0" to="315658884#3" type="passenger"/>
    <trip id="203" depart="197.60" from="770860548#1" to="-318747848#7" type="passenger"/>
    <trip id="204" depart="198.58" from="315658897#1" to="315658884#4" type="passenger"/>
    <trip id="205" depart="199.55" from="315658884#4" to="-351672100#4" type="passenger"/>
    <trip id="206" depart="200.52" from="-770860548#1" to="-315658884#4" type="passenger"/>
    <trip id="207" depart="201.50" from="-318747848#4" to="1339697074" type="passenger"/>
    <trip id="208" depart="202.47" from="333557072#3" to="428544127" type="passenger"/>
    <trip id="209" depart="203.44" from="78628770#1" to="-318747848#2" type="passenger"/>
    <trip id="210" depart="204.42" from="821457682#0" to="1339697075#2" type="passenger"/>
    <trip id="211" depart="205.39" from="-651817398#2" to="-712288152#1" type="passenger"/>
    <trip id="212" depart="206.36" from="-651817398#3" to="-318747848#7" type="passenger"/>
    <trip id="213" depart="207.34" from="770860565" to="712288152#1" type="passenger"/>
    <trip id="214" depart="208.31" from="315658897#0" to="315658896#3" type="passenger"/>
    <trip id="215" depart="209.28" from="712288152#1" to="-315658884#3" type="passenger"/>
    <trip id="216" depart="210.26" from="-315658897#1" to="1339697075#1" type="passenger"/>
    <trip id="217" depart="211.23" from="619147739#1" to="-712288152#1" type="passenger"/>
    <trip id="218" depart="212.20" from="351672100#2" to="-384030401#0" type="passenger"/>
    <trip id="219" depart="213.18" from="619147739#3" to="-464763971" type="passenger"/>
    <trip id="220" depart="214.15" from="-315658884#4" to="-351672100#2" type="passenger"/>
    <trip id="221" depart="215.12" from="773060732#2" to="-37403486#2" type="passenger"/>
    <trip id="222" depart="216.10" from="333557072#0" to="-315658896#2" type="passenger"/>
    <trip id="223" depart="217.07" from="-315658896#3" to="-37403486#2" type="passenger"/>
    <trip id="224" depart="218.04" from="-318747848#6" to="-318747848#5" type="passenger"/>
    <trip id="225" depart="219.02" from="773060732#3" to="1339697075#1" type="passenger"/>
    <trip id="226" depart="219.99" from="318747848#3" to="1339697075#3" type="passenger"/>
    <trip id="227" depart="220.96" from="78628775#1" to="619147739#6" type="passenger"/>
    <trip id="228" depart="221.94" from="318747848#2" to="315658884#1" type="passenger"/>
    <trip id="229" depart="222.91" from="-315658896#3" to="-318747848#7" type="passenger"/>
    <trip id="230" depart="223.88" from="777881144#0" to="315658884#2" type="passenger"/>
    <trip id="231" depart="224.86" from="351672100#4" to="-1339655670" type="passenger"/>
    <trip id="232" depart="225.83" from="821457682#0" to="318747848#5" type="passenger"/>
    <trip id="233" depart="226.80" from="1339655667#0" to="1339697074" type="passenger"/>
    <trip id="234" depart="227.78" from="318747848#5" to="1339697074" type="passenger"/>
    <trip id="235" depart="228.75" from="333557072#1" to="315658896#3" type="passenger"/>
    <trip id="236" depart="229.73" from="318747848#6" to="1339697074" type="passenger"/>
    <trip id="237" depart="230.70" from="315658897#1" to="-318747848#6" type="passenger"/>
    <trip id="238" depart="231.67" from="773060732#0" to="-351672100#0" type="passenger"/>
    <trip id="239" depart="232.65" from="712288152#2" to="777881147#1" type="passenger"/>
    <trip id="240" depart="233.62" from="351672100#1" to="-1339655670" type="passenger"/>
    <trip id="241" depart="234.59" from="333557072#3" to="712288152#1" type="passenger"/>
    <trip id="242" depart="235.57" from="770860548#0" to="-770860548#0" type="passenger"/>
    <trip id="243" depart="236.54" from="-315658896#2" to="-318747848#6" type="passenger"/>
    <trip id="244" depart="237.51" from="315658884#1" to="-384030401#1" type="passenger"/>
    <trip id="245" depart="238.49" from="777881144#0" to="1339655667#0" type="passenger"/>
    <trip id="246" depart="239.46" from="78628775#2" to="619147739#3" type="passenger"/>
    <trip id="247" depart="240.43" from="-318747848#3" to="712288152#0" type="passenger"/>
    <trip id="248" depart="241.41" from="-770860565" to="-315658884#2" type="passenger"/>
    <trip id="249" depart="242.38" from="773060732#1" to="1339697075#4" type="passenger"/>
    <trip id="250" depart="243.35" from="-770860549" to="-315658884#1" type="passenger"/>
    <trip id="251" depart="244.33" from="315658884#2" to="379943753#0" type="passenger"/>
    <trip id="252" depart="245.30" from="315658884#2" to="-315658884#3" type="passenger"/>
    <trip id="253" depart="246.27" from="333557072#3" to="770860549" type="passenger"/>
    <trip id="254" depart="247.25" from="-315658884#4" to="318747848#3" type="passenger"/>
    <trip id="255" depart="248.22" from="-651817398#4" to="712288152#1" type="passenger"/>
    <trip id="256" depart="249.19" from="315658896#1" to="-315658884#3" type="passenger"/>
    <trip id="257" depart="250.17" from="315658896#2" to="379943753#1" type="passenger"/>
    <trip id="258" depart="251.14" from="-770860548#1" to="315658884#4" type="passenger"/>
    <trip id="259" depart="252.11" from="333557072#0" to="428544127" type="passenger"/>
    <trip id="260" depart="253.09" from="-770860549" to="-318747848#6" type="passenger"/>
    <trip id="261" depart="254.06" from="-651817398#2" to="-315658884#3" type="passenger"/>
    <trip id="262" depart="255.03" from="379943753#1" to="1339697075#5" type="passenger"/>
    <trip id="263" depart="256.01" from="78628775#0" to="-315658896#1" type="passenger"/>
    <trip id="264" depart="256.98" from="-315658896#2" to="1339697075#6" type="passenger"/>
    <trip id="265" depart="257.95" from="78628775#0" to="1339655667#1" type="passenger"/>
    <trip id="266" depart="258.93" from="712288152#2" to="-384030401#1" type="passenger"/>
    <trip id="267" depart="259.90" from="770860548#0" to="379943755#1" type="passenger"/>
    <trip id="268" depart="260.87" from="619147739#4" to="315658884#2" type="passenger"/>
    <trip id="269" depart="261.85" from="315658897#1" to="619147739#4" type="passenger"/>
    <trip id="270" depart="262.82" from="315658884#2" to="1339697076#1" type="passenger"/>
    <trip id="271" depart="263.79" from="619147739#0" to="315658884#2" type="passenger"/>
    <trip id="272" depart="264.77" from="-318747848#3" to="1339697074" type="passenger"/>
    <trip id="273" depart="265.74" from="379943753#1" to="-464763971" type="passenger"/>
    <trip id="274" depart="266.71" from="-770860548#1" to="78628775#2" type="passenger"/>
    <trip id="275" depart="267.69" from="315658896#2" to="-351672100#4" type="passenger"/>
    <trip id="276" depart="268.66" from="-712288152#2" to="1339655667#1" type="passenger"/>
    <trip id="277" depart="269.63" from="-955312947" to="619147739#4" type="passenger"/>
    <trip id="278" depart="270.61" from="777881144#0" to="-318747848#6" type="passenger"/>
    <trip id="279" depart="271.58" from="-318747848#6" to="-315658896#2" type="passenger"/>
    <trip id="280" depart="272.56" from="773060732#1" to="1339655667#0" type="passenger"/>
    <trip id="281" depart="273.53" from="770860548#1" to="315658884#1" type="passenger"/>
    <trip id="282" depart="274.50" from="333557072#2" to="318747848#7" type="passenger"/>
    <trip id="283" depart="275.48" from="318747848#7" to="1339697074" type="passenger"/>
    <trip id="284" depart="276.45" from="619147739#5" to="-351672100#1" type="passenger"/>
    <trip id="285" depart="277.42" from="379943753#0" to="1339697075#6" type="passenger"/>
    <trip id="286" depart="278.40" from="379943753#0" to="-351672100#4" type="passenger"/>
    <trip id="287" depart="279.37" from="-770860548#2" to="318747848#7" type="passenger"/>
    <trip id="288" depart="280.34" from="-712288152#2" to="1339697075#5" type="passenger"/>
    <trip id="289" depart="281.32" from="315658884#1" to="-315658896#2" type="passenger"/>
    <trip id="290" depart="282.29" from="78628775#0" to="428544127" type="passenger"/>
    <trip id="291" depart="283.26" from="-770860549" to="777881144#1" type="passenger"/>
    <trip id="292" depart="284.24" from="-651817398#1" to="1339697076#1" type="passenger"/>
    <trip id="293" depart="285.21" from="-651817398#4" to="778973690" type="passenger"/>
    <trip id="294" depart="286.18" from="-651817398#5" to="-318747848#3" type="passenger"/>
    <trip id="295" depart="287.16" from="-770860548#2" to="619147739#6" type="passenger"/>
    <trip id="296" depart="288.13" from="712288152#2" to="315658897#1" type="passenger"/>
    <trip id="297" depart="289.10" from="333557072#3" to="-351672100#0" type="passenger"/>
    <trip id="298" depart="290.08" from="773060732#3" to="712288152#0" type="passenger"/>
    <trip id="299" depart="291.05" from="712288152#1" to="-315658884#1" type="passenger"/>
    <trip id="300" depart="292.02" from="773060732#2" to="955312947" type="passenger"/>
    <trip id="301" depart="293.00" from="-651817398#0" to="712288152#1" type="passenger"/>
    <trip id="302" depart="293.97" from="-651817398#4" to="1339697075#2" type="passenger"/>
    <trip id="303" depart="294.94" from="821457682#0" to="333557072#3" type="passenger"/>
    <trip id="304" depart="295.92" from="333557072#1" to="1339697075#3" type="passenger"/>
    <trip id="305" depart="296.89" from="-318747848#6" to="315658897#0" type="passenger"/>
    <trip id="306" depart="297.86" from="773060732#4" to="-351672100#0" type="passenger"/>
    <trip id="307" depart="298.84" from="315658897#1" to="428544127" type="passenger"/>
    <trip id="308" depart="299.81" from="318747848#7" to="-315658884#1" type="passenger"/>
    <trip id="309" depart="300.78" from="770860565" to="-770860549" type="passenger"/>
    <trip id="310" depart="301.76" from="-651817398#3" to="712288152#1" type="passenger"/>
    <trip id="311" depart="302.73" from="78628775#2" to="-315658897#1" type="passenger"/>
    <trip id="312" depart="303.70" from="-318747848#2" to="-1339655670" type="passenger"/>
    <trip id="313" depart="304.68" from="770860548#0" to="712288152#2" type="passenger"/>
    <trip id="314" depart="305.65" from="773060732#4" to="712288152#2" type="passenger"/>
    <trip id="315" depart="306.62" from="619147739#1" to="384030395" type="passenger"/>
    <trip id="316" depart="307.60" from="379943753#1" to="1339697075#5" type="passenger"/>
    <trip id="317" depart="308.57" from="-770860549" to="1339697075#4" type="passenger"/>
    <trip id="318" depart="309.54" from="619147739#1" to="315658897#1" type="passenger"/>
    <trip id="319" depart="310.52" from="318747848#3" to="777881144#1" type="passenger"/>
    <trip id="320" depart="311.49" from="773060732#1" to="-464763971" type="passenger"/>
    <trip id="321" depart="312.47" from="-315658897#2" to="315658896#3" type="passenger"/>
    <trip id="322" depart="313.44" from="-351672100#2" to="-351672100#1" type="passenger"/>
    <trip id="323" depart="314.41" from="-712288152#1" to="-37403486#1" type="passenger"/>