<?xml version="1.0" encoding="UTF-8"?>

<!-- generated on 2026-04-17 02:50:21.258417 by Eclipse SUMO randomTrips.py v1.26.0
<configuration>
    <net-file value="/Users/junlee/Desktop/2026-1/js/result/tradeoff_pet_top12_seed12_60min_20260417_024953/sumo_nets/cw_6122/network.net.xml"/>
    <output-trip-file value="/Users/junlee/Desktop/2026-1/js/result/tradeoff_pet_top12_seed12_60min_20260417_024953/sumo_nets/cw_6122/routes_seed48.trips.xml"/>
    <route-file value="/Users/junlee/Desktop/2026-1/js/result/tradeoff_pet_top12_seed12_60min_20260417_024953/sumo_nets/cw_6122/routes_seed48.rou.xml"/>
    <vehicle-class value="passenger"/>
    <seed value="48"/>
    <period value="2.9202338386706304"/>
</configuration>
-->

<!-- generated on 2026-04-17T02:50:21.235392+09:00 by Eclipse SUMO duarouter 1.26.0
<duarouterConfiguration xmlns:xsi="http://www.w3.org/2001/XMLSchema-instance" xsi:noNamespaceSchemaLocation="http://sumo.dlr.de/xsd/duarouterConfiguration.xsd">

    <input>
        <net-file value="/Users/junlee/Desktop/2026-1/js/result/tradeoff_pet_top12_seed12_60min_20260417_024953/sumo_nets/cw_6122/network.net.xml"/>
        <route-files value="/Users/junlee/Desktop/2026-1/js/result/tradeoff_pet_top12_seed12_60min_20260417_024953/sumo_nets/cw_6122/routes_seed48.trips.xml"/>
    </input>

    <output>
        <output-file value="/Users/junlee/Desktop/2026-1/js/result/tradeoff_pet_top12_seed12_60min_20260417_024953/sumo_nets/cw_6122/routes_seed48.rou.xml"/>
        <alternatives-output value="NUL"/>
    </output>

    <time>
        <begin value="0.0"/>
        <end value="3600.0"/>
    </time>

    <report>
        <no-warnings value="true"/>
        <ignore-errors value="true"/>
        <no-step-log value="true"/>
    </report>

</duarouterConfiguration>
-->

<routes xmlns:xsi="http://www.w3.org/2001/XMLSchema-instance" xsi:noNamespaceSchemaLocation="http://sumo.dlr.de/xsd/routes_file.xsd">
    <vType id="passenger" vClass="passenger"/>
    <vehicle id="0" type="passenger" depart="0.00">
        <route edges="315658896#3 315658896#4 315658896#5 464459667 -315658900#2 -315658900#1 -315658900#0 -315658897#2 -315658897#1 -315658897#0"/>
    </vehicle>
    <vehicle id="1" type="passenger" depart="2.92">
        <route edges="382947009 301285279#0 301285279#1 301285279#2 788296725 913406478 243542153#1 243542153#2 -315658897#5 -315658897#4"/>
    </vehicle>
    <vehicle id="2" type="passenger" depart="5.84">
        <route edges="913406478 315658899#0 315658899#1 -315658897#2 -315658896#1 619147739#3 781983103#1 781983103#2"/>
    </vehicle>
    <vehicle id="3" type="passenger" depart="8.76">
        <route edges="-315658896#3 -315658896#2 315658897#2 315658900#0 315658900#1 315658900#2"/>
    </vehicle>
    <vehicle id="4" type="passenger" depart="11.68">
        <route edges="-315658899#1 -315658899#0 243542153#1 243542153#2 -315658897#5 -315658897#4 -315658897#3 -315658897#2 315658896#2 315658896#3 315658896#4"/>
    </vehicle>
    <vehicle id="5" type="passenger" depart="14.60">
        <route edges="-315658899#1 -315658899#0 243542153#1 243542153#2 -315658897#5 -315658897#4 -315658897#3 -315658897#2 -315658896#1"/>
    </vehicle>
    <vehicle id="6" type="passenger" depart="17.52">
        <route edges="-315658884#1 315658897#0 315658897#1 315658896#2"/>
    </vehicle>
    <vehicle id="7" type="passenger" depart="20.44">
        <route edges="-315658897#1 -315658897#0"/>
    </vehicle>
    <vehicle id="8" type="passenger" depart="23.36">
        <route edges="-464459667 -315658896#5 -315658896#4 -315658896#3 -315658896#2 -315658896#1 619147739#3 -955312948 -955312947#0"/>
    </vehicle>
    <vehicle id="9" type="passenger" depart="26.28">
        <route edges="315658899#1 315658897#3 315658897#4 315658897#5 -243542153#2 -243542153#1 781983104#0 382947009 301285279#0 301285279#1 301285279#2 788296725"/>
    </vehicle>
    <vehicle id="10" type="passenger" depart="29.20">
        <route edges="-315658896#6 -315658896#5 -315658896#4 -315658896#3 -315658896#2 315658897#2 315658900#0 315658900#1 315658900#2"/>
    </vehicle>
    <vehicle id="11" type="passenger" depart="32.12">
        <route edges="-315658897#3 -315658899#1 -315658899#0 243542153#1"/>
    </vehicle>
    <vehicle id="12" type="passenger" depart="35.04">
        <route edges="619147739#3 -955312948 -955312947#0 315658896#1 315658897#2 -315658899#1 -315658899#0 781983104#0 382947009 301285279#0 301285279#1 301285279#2 581906883"/>
    </vehicle>
    <vehicle id="13" type="passenger" depart="37.96">
        <route edges="-318747848#2 -315658884#2 -315658884#1 619147739#2 619147739#3 -955312948"/>
    </vehicle>
    <vehicle id="14" type="passenger" depart="40.88">
        <route edges="301285279#2 788296725 913406478 315658899#0 315658899#1 315658900#0 315658900#1 315658900#2 -464459667 -315658896#5"/>
    </vehicle>
    <vehicle id="15" type="passenger" depart="43.80">
        <route edges="-315658896#4 -315658896#3 -315658896#2 -315658896#1 619147739#3 781983103#1 781983103#2 315658899#0 315658899#1 -315658897#2"/>
    </vehicle>
    <vehicle id="16" type="passenger" depart="46.72">
        <route edges="-333972428#3 -333972428#2 -333972428#1 -788296724#0 301285279#1 301285279#2 788296725 913406478 781983104#0 382947009 301285279#0"/>
    </vehicle>
    <vehicle id="17" type="passenger" depart="49.64">
        <route edges="464459667 -315658900#2 -315658900#1 -315658900#0 -315658899#1 -315658899#0 781983104#0 382947009 301285279#0 301285279#1 301285279#2 581906883"/>
    </vehicle>
    <vehicle id="18" type="passenger" depart="52.56">
        <route edges="218915135#1 218915135#1-AddedOffRampEdge 218915135#2 781983104#0"/>
    </vehicle>
    <vehicle id="19" type="passenger" depart="55.48">
        <route edges="-243542153#1 315658899#0 315658899#1 315658897#3 315658897#4"/>
    </vehicle>
    <vehicle id="20" type="passenger" depart="58.40">
        <route edges="318747848#1 -315658884#2 -315658884#1 619147739#2 619147739#3 781983103#1 781983103#2 243542153#1"/>
    </vehicle>
    <vehicle id="21" type="passenger" depart="61.32">
        <route edges="218915135#1 218915135#1-AddedOffRampEdge 218915135#2 315658899#0 315658899#1 -315658897#2 315658896#2 -318747848#3"/>
    </vehicle>
    <vehicle id="22" type="passenger" depart="64.25">
        <route edges="464459667 -315658900#2 -315658900#1 -315658900#0 -315658899#1 -315658899#0"/>
    </vehicle>
    <vehicle id="23" type="passenger" depart="67.17">
        <route edges="315658896#5 464459667 -315658900#2 -315658900#1 -315658900#0 -315658899#1 -315658899#0 781983104#0 382947009 301285279#0 788296724#0 333972428#1"/>
    </vehicle>
    <vehicle id="24" type="passenger" depart="70.09">
        <route edges="-315658897#2 -315658896#1 619147739#3 781983103#1 781983103#2 243542153#1 243542153#2 -315658897#5 -315658897#4 -315658897#3"/>
    </vehicle>
    <vehicle id="25" type="passenger" depart="73.01">
        <route edges="-318747848#2 -318747848#1 777881144#1 777881145"/>
    </vehicle>
    <vehicle id="26" type="passenger" depart="75.93">
        <route edges="315658897#0 315658897#1 315658897#2 -315658899#1 -315658899#0 781983104#0 382947009 301285279#0 788296724#0 333972428#1 333972428#2"/>
    </vehicle>
    <vehicle id="27" type="passenger" depart="78.85">
        <route edges="218915135#1-AddedOffRampEdge 218915135#2 315658899#0 315658899#1 -315658897#2 315658896#2 315658896#3 315658896#4 315658896#5"/>
    </vehicle>
    <vehicle id="28" type="passenger" depart="81.77">
        <route edges="218915135#1-AddedOffRampEdge 218915135#2 315658899#0 315658899#1 315658900#0 315658900#1 315658900#2 315658900#3"/>
    </vehicle>
    <vehicle id="29" type="passenger" depart="84.69">
        <route edges="-243542153#1 315658899#0 315658899#1 315658900#0 315658900#1"/>
    </vehicle>
    <vehicle id="30" type="passenger" depart="87.61">
        <route edges="619147739#3 781983103#1 781983103#2 315658899#0 315658899#1 315658897#3 315658897#4 315658897#5"/>
    </vehicle>
    <vehicle id="31" type="passenger" depart="90.53">
        <route edges="315658884#1 315658884#2 -318747848#1 777881144#1 777881145 777881147#1"/>
    </vehicle>
    <vehicle id="32" type="passenger" depart="93.45">
        <route edges="-315658896#2 315658897#2 -315658899#1 -315658899#0 781983104#0 382947009 301285279#0 301285279#1 301285279#2"/>
    </vehicle>
    <vehicle id="33" type="passenger" depart="96.37">
        <route edges="315658897#1 -315658896#1 619147739#3 -955312948 -955312947#0 315658896#1"/>
    </vehicle>
    <vehicle id="34" type="passenger" depart="99.29">
        <route edges="-315658899#1 -315658899#0 781983104#0 382947009 301285279#0 301285279#1 301285279#2 581906883"/>
    </vehicle>
    <vehicle id="35" type="passenger" depart="102.21">
        <route edges="781983103#1 -955312947#1 955312948"/>
    </vehicle>
    <vehicle id="36" type="passenger" depart="105.13">
        <route edges="315658897#3 315658897#4 315658897#5 -243542153#2 -243542153#1 315658899#0 315658899#1 -315658897#2 315658896#2 315658896#3 315658896#4 315658896#5 464459667 -315658900#2 -315658900#1 -315658900#0 -315658899#1"/>
    </vehicle>
    <vehicle id="37" type="passenger" depart="108.05">
        <route edges="955312947#1 781983103#2 243542153#1 243542153#2 243542153#3"/>
    </vehicle>
    <vehicle id="38" type="passenger" depart="110.97">
        <route edges="-333972428#2 -333972428#1 -788296724#0 301285279#1 301285279#2 788296725 913406478 315658899#0 315658899#1 -315658897#2 -315658896#1 955312947#0"/>
    </vehicle>
    <vehicle id="39" type="passenger" depart="113.89">
        <route edges="315658900#1 315658900#2 -464459667 -315658896#5 -315658896#4 -315658896#3 -315658896#2"/>
    </vehicle>
    <vehicle id="40" type="passenger" depart="116.81">
        <route edges="-333972428#3 -333972428#2 -333972428#1 -788296724#0 301285279#1 301285279#2 788296725 913406478 315658899#0 315658899#1 -315658897#2 315658896#2 315658896#3 315658896#4 315658896#5 464459667"/>
    </vehicle>
    <vehicle id="41" type="passenger" depart="119.73">
        <route edges="315658899#1 -315658897#2 315658896#2 -318747848#3 -318747848#2 -315658884#2"/>
    </vehicle>
    <vehicle id="42" type="passenger" depart="122.65">
        <route edges="781983103#2 315658899#0 315658899#1 -315658897#2 315658896#2 -318747848#3 -318747848#2 -318747848#1 777881144#1 777881145 777881147#1"/>
    </vehicle>
    <vehicle id="43" type="passenger" depart="125.57">
        <route edges="78628775#2 78628770#1 318747848#1 -315658884#2 -315658884#1 315658897#0 315658897#1 315658897#2 315658900#0 315658900#1 315658900#2 -464459667 -315658896#5 -315658896#4"/>
    </vehicle>
    <vehicle id="44" type="passenger" depart="128.49">
        <route edges="777881144#0 318747848#1 -315658884#2 -315658884#1 315658897#0 315658897#1 315658897#2"/>
    </vehicle>
    <vehicle id="45" type="passenger" depart="131.41">
        <route edges="913406478 781983104#0 382947009 301285279#0 301285279#1 301285279#2 581906883"/>
    </vehicle>
    <vehicle id="46" type="passenger" depart="134.33">
        <route edges="-315658884#2 -315658884#1 315658897#0 315658897#1 315658897#2 315658897#3 315658897#4"/>
    </vehicle>
    <vehicle id="47" type="passenger" depart="137.25">
        <route edges="-315658896#1 619147739#3 -955312948 -955312947#0 315658896#1 315658896#2 -318747848#3 -318747848#2 -318747848#1 777881144#1"/>
    </vehicle>
    <vehicle id="48" type="passenger" depart="140.17">
        <route edges="315658897#4 315658897#5 -243542153#2 -243542153#1 315658899#0 315658899#1 -315658897#2 315658896#2 -318747848#3 -318747848#2 -318747848#1 777881144#1 777881145"/>
    </vehicle>
    <vehicle id="49" type="passenger" depart="143.09">
        <route edges="-315658896#5 -315658896#4 -315658896#3 -318747848#3 -318747848#2 -318747848#1 777881144#1"/>
    </vehicle>
    <vehicle id="50" type="passenger" depart="146.01">
        <route edges="464459667 -315658900#2 -315658900#1 -315658900#0 -315658899#1 -315658899#0 781983104#0 382947009 301285279#0 301285279#1 301285279#2"/>
    </vehicle>
    <vehicle id="51" type="passenger" depart="148.93">
        <route edges="315658900#2 -464459667 -315658896#5 -315658896#4 -315658896#3 -315658896#2 -315658897#1 -315658897#0 315658884#1"/>
    </vehicle>
    <vehicle id="52" type="passenger" depart="151.85">
        <route edges="301285279#1 301285279#2 788296725 913406478 243542153#1 243542153#2 -315658897#5 -315658897#4 -315658897#3 -315658899#1 -315658899#0"/>
    </vehicle>
    <vehicle id="53" type="passenger" depart="154.77">
        <route edges="-243542153#2 -243542153#1 781983104#0 382947009 301285279#0 301285279#1 301285279#2"/>
    </vehicle>
    <vehicle id="54" type="passenger" depart="157.69">
        <route edges="-315658899#1 -315658899#0 243542153#1 243542153#2 -315658897#5 -315658897#4 -315658897#3 315658900#0 315658900#1 315658900#2 -464459667"/>
    </vehicle>
    <vehicle id="55" type="passenger" depart="160.61">
        <route edges="-315658897#5 -315658897#4 -315658897#3 -315658899#1 -315658899#0"/>
    </vehicle>
    <vehicle id="56" type="passenger" depart="163.53">
        <route edges="315658896#2 315658896#3 315658896#4 315658896#5 464459667 -315658900#2 -315658900#1 -315658900#0 -315658899#1 -315658899#0 781983104#0 781983104#1"/>
    </vehicle>
    <vehicle id="57" type="passenger" depart="166.45">
        <route edges="315658897#4 315658897#5 -243542153#2 -243542153#1 315658899#0 315658899#1 -315658897#2 315658896#2 315658896#3 315658896#4 315658896#5 464459667 -315658900#2 -315658900#1"/>
    </vehicle>
    <vehicle id="58" type="passenger" depart="169.37">
        <route edges="315658900#1 315658900#2 -464459667 -315658896#5 -315658896#4 -315658896#3 -318747848#3 -318747848#2 -315658884#2 -315658884#1 315658897#0"/>
    </vehicle>
    <vehicle id="59" type="passenger" depart="172.29">
        <route edges="315658896#1 315658896#2 -318747848#3 -318747848#2 -315658884#2 -315658884#1 315658897#0 315658897#1"/>
    </vehicle>
    <vehicle id="60" type="passenger" depart="175.21">
        <route edges="-315658896#3 -315658896#2 -315658897#1 -315658897#0 619147739#2 315658896#1 315658896#2 315658896#3 315658896#4 315658896#5 464459667 -315658900#2"/>
    </vehicle>
    <vehicle id="61" type="passenger" depart="178.13">
        <route edges="-315658884#1 315658897#0 315658897#1 315658896#2 315658896#3 315658896#4 315658896#5 464459667"/>
    </vehicle>
    <vehicle id="62" type="passenger" depart="181.05">
        <route edges="-315658899#1 -315658899#0 243542153#1 243542153#2 -315658897#5 -315658897#4 -315658897#3 315658900#0 315658900#1 315658900#2 -464459667 -315658896#5 -315658896#4 -315658896#3"/>
    </vehicle>
    <vehicle id="63" type="passenger" depart="183.97">
        <route edges="218915135#2 781983104#0 382947009 301285279#0 788296724#0 333972428#1"/>
    </vehicle>
    <vehicle id="64" type="passenger" depart="186.89">
        <route edges="-315658897#2 315658896#2 -318747848#3 -318747848#2 -318747848#1 777881144#1 777881145"/>
    </vehicle>
    <vehicle id="65" type="passenger" depart="189.82">
        <route edges="913406478 315658899#0 315658899#1 -315658897#2 -315658897#1 -315658897#0 315658884#1 315658884#2 318747848#2"/>
    </vehicle>
    <vehicle id="66" type="passenger" depart="192.74">
        <route edges="-315658884#2 -315658884#1 315658897#0 315658897#1 315658897#2 -315658899#1 -315658899#0 781983104#0 382947009"/>
    </vehicle>
    <vehicle id="67" type="passenger" depart="195.66">
        <route edges="781983103#2 243542153#1 243542153#2 243542153#3"/>
    </vehicle>
    <vehicle id="68" type="passenger" depart="198.58">
        <route edges="781983104#0 382947009 301285279#0 301285279#1 301285279#2 788296725 913406478 315658899#0 315658899#1 -315658897#2 -315658896#1 619147739#3 -955312948 -955312947#0"/>
    </vehicle>
    <vehicle id="69" type="passenger" depart="201.50">
        <route edges="-315658884#2 -315658884#1 315658897#0 315658897#1 315658896#2 -318747848#3 -318747848#2 -318747848#1 777881144#1 777881145 777881147#1"/>
    </vehicle>
    <vehicle id="70" type="passenger" depart="204.42">
        <route edges="-315658900#3 -315658900#2 -315658900#1 -315658900#0 -315658899#1 -315658899#0 781983104#0"/>
    </vehicle>
    <vehicle id="71" type="passenger" depart="207.34">
        <route edges="318747848#3 -315658896#2 -315658896#1 619147739#3 781983103#1 781983103#2 243542153#1 243542153#2"/>
    </vehicle>
    <vehicle id="72" type="passenger" depart="210.26">
        <route edges="315658897#2 315658900#0 315658900#1 315658900#2 -464459667 315658896#6"/>
    </vehicle>
    <vehicle id="73" type="passenger" depart="213.18">
        <route edges="315658897#4 315658897#5 -243542153#2 -243542153#1 315658899#0 315658899#1 -315658897#2 315658896#2 315658896#3 315658896#4 315658896#5 464459667"/>
    </vehicle>
    <vehicle id="74" type="passenger" depart="216.10">
        <route edges="315658884#1 315658884#2 318747848#2 318747848#3 -315658896#2 -315658897#1 -315658897#0 619147739#2"/>
    </vehicle>
    <vehicle id="75" type="passenger" depart="219.02">
        <route edges="788296725 913406478 315658899#0 315658899#1 -315658897#2 315658896#2 -318747848#3 -318747848#2 -318747848#1 379943755#1"/>
    </vehicle>
    <vehicle id="76" type="passenger" depart="221.94">
        <route edges="-315658897#3 -315658899#1 -315658899#0 781983104#0 382947009 301285279#0 301285279#1 301285279#2 788296725 913406478"/>
    </vehicle>
    <vehicle id="77" type="passenger" depart="224.86">
        <route edges="619147739#3 781983103#1 781983103#2 315658899#0 315658899#1 -315658897#2 -315658896#1"/>
    </vehicle>
    <vehicle id="78" type="passenger" depart="227.78">
        <route edges="619147739#0 619147739#1 315658897#0 315658897#1 315658897#2"/>
    </vehicle>
    <vehicle id="79" type="passenger" depart="230.70">
        <route edges="781983104#0 382947009 301285279#0 301285279#1 301285279#2 788296725 913406478 243542153#1 243542153#2 243542153#3"/>
    </vehicle>
    <vehicle id="80" type="passenger" depart="233.62">
        <route edges="318747848#3 -315658896#2 -315658896#1 619147739#3"/>
    </vehicle>
    <vehicle id="81" type="passenger" depart="236.54">
        <route edges="619147739#2 315658896#1 315658896#2 -318747848#3"/>
    </vehicle>
    <vehicle id="82" type="passenger" depart="239.46">
        <route edges="-315658884#2 -315658884#1 619147739#2 619147739#3 781983103#1 781983103#2 243542153#1"/>
    </vehicle>
    <vehicle id="83" type="passenger" depart="242.38">
        <route edges="-333972428#1 -788296724#0 301285279#1 301285279#2 788296725 913406478 315658899#0 315658899#1 -315658897#2 -315658896#1 955312947#0 955312947#1"/>
    </vehicle>
    <vehicle id="84" type="passenger" depart="245.30">
        <route edges="-315658884#1 315658897#0 315658897#1 315658896#2 -318747848#3 -318747848#2 -318747848#1 777881144#1 777881145 777881147#1"/>
    </vehicle>
    <vehicle id="85" type="passenger" depart="248.22">
        <route edges="-315658897#3 -315658897#2 315658896#2 -318747848#3 -318747848#2 -318747848#1 777881144#1 777881145"/>
    </vehicle>
    <vehicle id="86" type="passenger" depart="251.14">
        <route edges="78628770#1 318747848#1 -315658884#2 -315658884#1 619147739#2 619147739#3 781983103#1"/>
    </vehicle>
    <vehicle id="87" type="passenger" depart="254.06">
        <route edges="315658900#2 315658900#3"/>
    </vehicle>
    <vehicle id="88" type="passenger" depart="256.98">
        <route edges="619147739#1 315658897#0 315658897#1 315658897#2 -315658899#1 -315658899#0 781983104#0"/>
    </vehicle>
    <vehicle id="89" type="passenger" depart="259.90">
        <route edges="-243542153#1 781983104#0 382947009 301285279#0 788296724#0 333972428#1 333972428#2"/>
    </vehicle>
    <vehicle id="90" type="passenger" depart="262.82">
        <route edges="777881144#0 318747848#1 -315658884#2 -315658884#1 619147739#2 619147739#3 781983103#1 781983103#2 243542153#1 243542153#2"/>
    </vehicle>
    <vehicle id="91" type="passenger" depart="265.74">
        <route edges="315658884#1 315658884#2 -318747848#1"/>
    </vehicle>
    <vehicle id="92" type="passenger" depart="268.66">
        <route edges="-333972428#2 -333972428#1 -788296724#0 301285279#1 301285279#2 788296725 913406478 243542153#1 243542153#2"/>
    </vehicle>
    <vehicle id="93" type="passenger" depart="271.58">
        <route edges="-318747848#3 -318747848#2 -315658884#2 -315658884#1 315658897#0 315658897#1 315658896#2 315658896#3 315658896#4 315658896#5 464459667"/>
    </vehicle>
    <vehicle id="94" type="passenger" depart="274.50">
        <route edges="-333972428#2 -333972428#1 -788296724#0 301285279#1 301285279#2 788296725 913406478 315658899#0 315658899#1 -315658897#2 -315658897#1 -315658897#0 315658884#1 315658884#2"/>
    </vehicle>
    <vehicle id="95" type="passenger" depart="277.42">
        <route edges="218915135#1-AddedOffRampEdge 218915135#2 315658899#0 315658899#1 315658897#3 315658897#4 315658897#5"/>
    </vehicle>
    <vehicle id="96" type="passenger" depart="280.34">
        <route edges="315658896#2 315658896#3 315658896#4 315658896#5 464459667 -315658900#2 -315658900#1 -315658900#0 315658897#3 315658897#4 315658897#5 -243542153#2 -243542153#1"/>
    </vehicle>
    <vehicle id="97" type="passenger" depart="283.26">
        <route edges="78628775#0 78628775#2 78628770#1 318747848#1 -315658884#2 -315658884#1 315658897#0"/>
    </vehicle>
    <vehicle id="98" type="passenger" depart="286.18">
        <route edges="315658897#2 -315658899#1 -315658899#0 781983104#0 382947009 301285279#0 301285279#1 301285279#2 788296725 913406478"/>
    </vehicle>
    <vehicle id="99" type="passenger" depart="289.10">
        <route edges="315658897#4 315658897#5 -243542153#2 -243542153#1 781983104#0 781983104#1 333557072#1"/>
    </vehicle>
    <vehicle id="100" type="passenger" depart="292.02">
        <route edges="315658896#2 315658896#3 315658896#4 315658896#5 464459667 -315658900#2 -315658900#1 -315658900#0 -315658899#1 -315658899#0 781983104#0 382947009 301285279#0 301285279#1 301285279#2"/>
    </vehicle>
    <vehicle id="101" type="passenger" depart="294.94">
        <route edges="777881144#0 318747848#1"/>
    </vehicle>
    <vehicle id="102" type="passenger" depart="297.86">
        <route edges="781983104#0 382947009 301285279#0 301285279#1 301285279#2 788296725 913406478 315658899#0 315658899#1 315658900#0 315658900#1 315658900#2 -464459667 -315658896#5 -315658896#4 -315658896#3"/>
    </vehicle>
    <vehicle id="103" type="passenger" depart="300.78">
        <route edges="243542153#2 -315658897#5 -315658897#4 -315658897#3 -315658897#2 -315658897#1 -315658897#0"/>
    </vehicle>
    <vehicle id="104" type="passenger" depart="303.70">
        <route edges="619147739#2 315658896#1 315658896#2 315658896#3 315658896#4 315658896#5 464459667 -315658900#2 -315658900#1"/>
    </vehicle>
    <vehicle id="105" type="passenger" depart="306.62">
        <route edges="218915135#0 218915135#1 218915135#1-AddedOffRampEdge 218915135#2 315658899#0 315658899#1 -315658897#2 -315658897#1 -315658897#0 619147739#2"/>
    </vehicle>
    <vehicle id="106" type="passenger" depart="309.54">
        <route edges="315658897#2 -315658899#1 -315658899#0 781983104#0 781983104#1 333557072#1 333557072#2"/>
    </vehicle>
    <vehicle id="107" type="passenger" depart="312.47">
        <route edges="-315658896#1 619147739#3 781983103#1 781983103#2 243542153#1 243542153#2 -315658897#5 -315658897#4"/>
    </vehicle>
    <vehicle id="108" type="passenger" depart="315.39">
        <route edges="382947009 301285279#0 301285279#1 301285279#2 788296725 913406478 315658899#0 315658899#1 315658900#0 315658900#1 315658900#2 -464459667 -315658896#5 -315658896#4 -315658896#3"/>
    </vehicle>
    <vehicle id="109" type="passenger" depart="318.31">
        <route edges="315658897#2 315658900#0 315658900#1 315658900#2 -464459667 -315658896#5 -315658896#4 -315658896#3 -318747848#3 -318747848#2 -318747848#1 777881144#1"/>
    </vehicle>
    <vehicle id="110" type="passenger" depart="321.23">
        <route edges="-315658896#3 -315658896#2 -315658897#1 -315658897#0 619147739#2 315658896#1 315658896#2 315658896#3 315658896#4 315658896#5 464459667 -315658900#2"/>
    </vehicle>
    <vehicle id="111" type="passenger" depart="324.15">
        <route edges="913406478 781983104#0 382947009"/>
    </vehicle>
    <vehicle id="112" type="passenger" depart="327.07">
        <route edges="301285279#0 301285279#1 301285279#2 788296725 913406478 315658899#0 315658899#1 -315658897#2 315658896#2 -318747848#3 -318747848#2 -315658884#2"/>
    </vehicle>
    <vehicle id="113" type="passenger" depart="329.99">
        <route edges="619147739#1 619147739#2 315658896#1 315658896#2 315658896#3"/>
    </vehicle>
    <vehicle id="114" type="passenger" depart="332.91">
        <route edges="78628775#2 78628770#1 318747848#1 318747848#2 318747848#3 315658896#3 315658896#4 315658896#5"/>
    </vehicle>
    <vehicle id="115" type="passenger" depart="335.83">
        <route edges="781983104#0 382947009 301285279#0 301285279#1 301285279#2 788296725 913406478 243542153#1 243542153#2"/>
    </vehicle>
    <vehicle id="116" type="passenger" depart="338.75">
        <route edges="315658897#3 315658897#4 315658897#5 -243542153#2 -243542153#1 921117704"/>
    </vehicle>
    <vehicle id="117" type="passenger" depart="341.67">
        <route edges="-315658897#0 315658884#1 315658884#2 -318747848#1 379943755#1"/>
    </vehicle>
    <vehicle id="118" type="passenger" depart="344.59">
        <route edges="-315658897#1 -315658897#0 619147739#2 315658896#1 315658897#2 -315658899#1 -315658899#0 781983104#0 382947009 301285279#0 301285279#1 301285279#2 581906883"/>
    </vehicle>
    <vehicle id="119" type="passenger" depart="347.51">
        <route edges="218915135#2 315658899#0 315658899#1 -315658897#2 315658896#2 -318747848#3 -318747848#2 -318747848#1 379943755#1"/>
    </vehicle>
    <vehicle id="120" type="passenger" depart="350.43">
        <route edges="315658899#1 -315658897#2 -315658896#1 955312947#0"/>
    </vehicle>
    <vehicle id="121" type="passenger" depart="353.35">
        <route edges="955312948 781983103#1 781983103#2 315658899#0 315658899#1 315658900#0 315658900#1 315658900#2 -464459667 -315658896#5"/>
    </vehicle>
    <vehicle id="122" type="passenger" depart="356.27">
        <route edges="315658899#0 315658899#1 -315658897#2 -315658897#1 -315658897#0 315658884#1"/>
    </vehicle>
    <vehicle id="123" type="passenger" depart="359.19">
        <route edges="-315658884#2 -315658884#1 619147739#2 619147739#3 781983103#1 781983103#2 315658899#0"/>
    </vehicle>
    <vehicle id="124" type="passenger" depart="362.11">
        <route edges="301285279#0 301285279#1 301285279#2 788296725 913406478 781983104#0"/>
    </vehicle>
    <vehicle id="125" type="passenger" depart="365.03">
        <route edges="-315658900#1 -315658900#0 -315658899#1 -315658899#0 781983104#0 382947009 301285279#0 788296724#0 -333972428#0"/>
    </vehicle>
    <vehicle id="126" type="passenger" depart="367.95">
        <route edges="315658896#3 315658896#4 315658896#5 464459667 -315658900#2 -315658900#1 -315658900#0 -315658897#2 -315658896#1 955312947#0 955312947#1"/>
    </vehicle>
    <vehicle id="127" type="passenger" depart="370.87">
        <route edges="-315658896#5 -315658896#4 -315658896#3 -315658896#2 315658897#2 -315658899#1 -315658899#0 781983104#0 382947009 301285279#0 301285279#1"/>
    </vehicle>
    <vehicle id="128" type="passenger" depart="373.79">
        <route edges="-243542153#3 -243542153#2 -243542153#1 781983104#0"/>
    </vehicle>
    <vehicle id="129" type="passenger" depart="376.71">
        <route edges="-315658896#4 -315658896#3 -315658896#2 315658897#2 -315658899#1 -315658899#0 781983104#0"/>
    </vehicle>
    <vehicle id="130" type="passenger" depart="379.63">
        <route edges="315658897#4 315658897#5 -243542153#2 -243542153#1 781983104#0 382947009 301285279#0 301285279#1"/>
    </vehicle>
    <vehicle id="131" type="passenger" depart="382.55">
        <route edges="315658884#2 318747848#2 318747848#3 315658896#3 315658896#4 315658896#5 464459667 -315658900#2 -315658900#1 -315658900#0"/>
    </vehicle>
    <vehicle id="132" type="passenger" depart="385.47">
        <route edges="955312948 781983103#1 781983103#2 243542153#1 243542153#2 -315658897#5 -315658897#4 -315658897#3"/>
    </vehicle>
    <vehicle id="133" type="passenger" depart="388.39">
        <route edges="78628775#0 78628775#2 78628770#1 318747848#1 -315658884#2 -315658884#1 315658897#0 315658897#1 315658897#2 -315658899#1 -315658899#0 781983104#0 382947009 301285279#0 788296724#0 333972428#1 333972428#2"/>
    </vehicle>
    <vehicle id="134" type="passenger" depart="391.31">
        <route edges="955312947#1 781983103#2 315658899#0 315658899#1 315658897#3 315658897#4 315658897#5 -243542153#2 -243542153#1 781983104#0 382947009 301285279#0 301285279#1 301285279#2 788296725"/>
    </vehicle>
    <vehicle id="135" type="passenger" depart="394.23">
        <route edges="218915135#1-AddedOffRampEdge 218915135#2 315658899#0 315658899#1 -315658897#2 -315658896#1 619147739#3 781983103#1"/>
    </vehicle>
    <vehicle id="136" type="passenger" depart="397.15">
        <route edges="78628775#2 78628770#1 318747848#1 -315658884#2 -315658884#1 315658897#0 315658897#1 315658897#2 -315658899#1 -315658899#0 781983104#0 382947009 301285279#0 788296724#0 333972428#1 333972428#2 333972428#3"/>
    </vehicle>
    <vehicle id="137" type="passenger" depart="400.07">
        <route edges="781983104#0 382947009 301285279#0 788296724#0 333972428#1 333972428#2"/>
    </vehicle>
    <vehicle id="138" type="passenger" depart="402.99">