<?xml version="1.0" encoding="UTF-8"?>

<!-- generated on 2026-04-17 02:50:25.247574 by Eclipse SUMO randomTrips.py v1.26.0
<configuration>
    <net-file value="/Users/junlee/Desktop/2026-1/js/result/tradeoff_pet_top12_seed12_60min_20260417_024953/sumo_nets/cw_6122/network.net.xml"/>
    <output-trip-file value="/Users/junlee/Desktop/2026-1/js/result/tradeoff_pet_top12_seed12_60min_20260417_024953/sumo_nets/cw_6122/routes_seed53.trips.xml"/>
    <route-file value="/Users/junlee/Desktop/2026-1/js/result/tradeoff_pet_top12_seed12_60min_20260417_024953/sumo_nets/cw_6122/routes_seed53.rou.xml"/>
    <vehicle-class value="passenger"/>
    <seed value="53"/>
    <period value="2.5340013902139016"/>
</configuration>
-->

<routes xmlns:xsi="http://www.w3.org/2001/XMLSchema-instance" xsi:noNamespaceSchemaLocation="http://sumo.dlr.de/xsd/routes_file.xsd">
    <vType id="passenger" vClass="passenger"/>
    <trip id="0" depart="0.00" from="315658897#4" to="781983104#1" type="passenger"/>
    <trip id="1" depart="2.53" from="243542153#1" to="333557072#2" type="passenger"/>
    <trip id="2" depart="5.07" from="333972428#0" to="333972428#2" type="passenger"/>
    <trip id="3" depart="7.60" from="-315658897#2" to="955312948" type="passenger"/>
    <trip id="4" depart="10.14" from="-788296724#0" to="301285279#1" type="passenger"/>
    <trip id="5" depart="12.67" from="-315658900#0" to="-315658897#1" type="passenger"/>
    <trip id="6" depart="15.20" from="315658884#1" to="315658900#2" type="passenger"/>
    <trip id="7" depart="17.74" from="-333972428#3" to="315658900#3" type="passenger"/>
    <trip id="8" depart="20.27" from="955312947#1" to="-315658884#1" type="passenger"/>
    <trip id="9" depart="22.81" from="-318747848#2" to="-315658896#2" type="passenger"/>
    <trip id="10" depart="25.34" from="315658900#2" to="243542153#2" type="passenger"/>
    <trip id="11" depart="27.87" from="218915135#2" to="-318747848#2" type="passenger"/>
    <trip id="12" depart="30.41" from="619147739#0" to="382947009" type="passenger"/>
    <trip id="13" depart="32.94" from="218915135#2" to="777881144#1" type="passenger"/>
    <trip id="14" depart="35.48" from="-315658900#0" to="-955312947#0" type="passenger"/>
    <trip id="15" depart="38.01" from="315658900#1" to="777881144#1" type="passenger"/>
    <trip id="16" depart="40.54" from="-315658896#6" to="788296724#0" type="passenger"/>
    <trip id="17" depart="43.08" from="-315658897#5" to="315658896#6" type="passenger"/>
    <trip id="18" depart="45.61" from="315658899#0" to="315658900#3" type="passenger"/>
    <trip id="19" depart="48.15" from="301285279#0" to="315658896#5" type="passenger"/>
    <trip id="20" depart="50.68" from="-955312947#1" to="-315658896#1" type="passenger"/>
    <trip id="21" depart="53.21" from="-315658896#5" to="315658900#2" type="passenger"/>
    <trip id="22" depart="55.75" from="-315658900#0" to="315658884#1" type="passenger"/>
    <trip id="23" depart="58.28" from="-315658900#1" to="-464459667" type="passenger"/>
    <trip id="24" depart="60.82" from="315658897#5" to="315658896#1" type="passenger"/>
    <trip id="25" depart="63.35" from="-315658900#0" to="777881145" type="passenger"/>
    <trip id="26" depart="65.88" from="315658896#5" to="-315658897#1" type="passenger"/>
    <trip id="27" depart="68.42" from="-315658897#3" to="913406478" type="passenger"/>
    <trip id="28" depart="70.95" from="-333972428#3" to="243542153#2" type="passenger"/>
    <trip id="29" depart="73.49" from="-315658896#2" to="781983103#2" type="passenger"/>
    <trip id="30" depart="76.02" from="-315658900#2" to="315658897#2" type="passenger"/>
    <trip id="31" depart="78.55" from="318747848#1" to="-318747848#3" type="passenger"/>
    <trip id="32" depart="81.09" from="315658897#4" to="913406478" type="passenger"/>
    <trip id="33" depart="83.62" from="78628775#2" to="318747848#1" type="passenger"/>
    <trip id="34" depart="86.16" from="315658897#2" to="-315658897#3" type="passenger"/>
    <trip id="35" depart="88.69" from="-464459667" to="-315658884#2" type="passenger"/>
    <trip id="36" depart="91.22" from="315658896#2" to="301285279#0" type="passenger"/>
    <trip id="37" depart="93.76" from="218915135#1-AddedOffRampEdge" to="315658896#6" type="passenger"/>
    <trip id="38" depart="96.29" from="301285279#1" to="315658900#3" type="passenger"/>
    <trip id="39" depart="98.83" from="315658899#0" to="315658900#3" type="passenger"/>
    <trip id="40" depart="101.36" from="-315658899#1" to="619147739#2" type="passenger"/>
    <trip id="41" depart="103.89" from="-464459667" to="-315658896#1" type="passenger"/>
    <trip id="42" depart="106.43" from="-955312947#0" to="315658897#3" type="passenger"/>
    <trip id="43" depart="108.96" from="955312947#1" to="315658896#5" type="passenger"/>
    <trip id="44" depart="111.50" from="315658896#4" to="777881144#1" type="passenger"/>
    <trip id="45" depart="114.03" from="301285279#0" to="315658896#5" type="passenger"/>
    <trip id="46" depart="116.56" from="-788296724#0" to="-315658896#4" type="passenger"/>
    <trip id="47" depart="119.10" from="-243542153#1" to="581906883" type="passenger"/>
    <trip id="48" depart="121.63" from="955312947#1" to="243542153#2" type="passenger"/>
    <trip id="49" depart="124.17" from="78628775#2" to="-315658900#1" type="passenger"/>
    <trip id="50" depart="126.70" from="315658897#5" to="619147739#2" type="passenger"/>
    <trip id="51" depart="129.23" from="-315658896#6" to="315658897#0" type="passenger"/>
    <trip id="52" depart="131.77" from="-333972428#2" to="315658884#2" type="passenger"/>
    <trip id="53" depart="134.30" from="315658897#4" to="-315658900#2" type="passenger"/>
    <trip id="54" depart="136.84" from="315658900#0" to="333972428#2" type="passenger"/>
    <trip id="55" depart="139.37" from="-318747848#3" to="-315658900#0" type="passenger"/>
    <trip id="56" depart="141.90" from="315658899#0" to="301285279#2" type="passenger"/>
    <trip id="57" depart="144.44" from="777881144#0" to="379943755#1" type="passenger"/>
    <trip id="58" depart="146.97" from="243542153#1" to="243542153#3" type="passenger"/>
    <trip id="59" depart="149.51" from="315658897#0" to="315658897#5" type="passenger"/>
    <trip id="60" depart="152.04" from="301285279#0" to="315658897#0" type="passenger"/>
    <trip id="61" depart="154.57" from="301285279#1" to="-315658897#0" type="passenger"/>
    <trip id="62" depart="157.11" from="-464459667" to="315658897#4" type="passenger"/>
    <trip id="63" depart="159.64" from="781983103#2" to="243542153#1" type="passenger"/>
    <trip id="64" depart="162.18" from="-955312948" to="315658900#1" type="passenger"/>
    <trip id="65" depart="164.71" from="955312947#1" to="-315658884#2" type="passenger"/>
    <trip id="66" depart="167.24" from="315658896#2" to="-955312948" type="passenger"/>
    <trip id="67" depart="169.78" from="-788296724#0" to="-464459667" type="passenger"/>
    <trip id="68" depart="172.31" from="315658897#2" to="382947009" type="passenger"/>
    <trip id="69" depart="174.85" from="315658900#0" to="-315658896#1" type="passenger"/>
    <trip id="70" depart="177.38" from="243542153#2" to="777881145" type="passenger"/>
    <trip id="71" depart="179.91" from="-581906883" to="315658899#0" type="passenger"/>
    <trip id="72" depart="182.45" from="-333972428#1" to="-315658897#5" type="passenger"/>
    <trip id="73" depart="184.98" from="-243542153#2" to="-315658897#0" type="passenger"/>
    <trip id="74" depart="187.52" from="315658900#2" to="-315658884#2" type="passenger"/>
    <trip id="75" depart="190.05" from="619147739#3" to="777881145" type="passenger"/>
    <trip id="76" depart="192.58" from="-315658900#2" to="-315658897#3" type="passenger"/>
    <trip id="77" depart="195.12" from="-955312948" to="318747848#2" type="passenger"/>
    <trip id="78" depart="197.65" from="315658884#1" to="788296724#0" type="passenger"/>
    <trip id="79" depart="200.19" from="-955312947#1" to="315658900#3" type="passenger"/>
    <trip id="80" depart="202.72" from="315658899#0" to="-315658899#0" type="passenger"/>
    <trip id="81" depart="205.25" from="301285279#1" to="318747848#2" type="passenger"/>
    <trip id="82" depart="207.79" from="-333972428#3" to="788296725" type="passenger"/>
    <trip id="83" depart="210.32" from="-315658884#2" to="-955312948" type="passenger"/>
    <trip id="84" depart="212.86" from="955312947#0" to="921117704" type="passenger"/>
    <trip id="85" depart="215.39" from="301285279#2" to="-315658897#5" type="passenger"/>
    <trip id="86" depart="217.92" from="-788296724#0" to="301285279#0" type="passenger"/>
    <trip id="87" depart="220.46" from="-788296724#0" to="781983104#0" type="passenger"/>
    <trip id="88" depart="222.99" from="315658896#1" to="777881147#3" type="passenger"/>
    <trip id="89" depart="225.53" from="-315658899#1" to="781983104#1" type="passenger"/>
    <trip id="90" depart="228.06" from="619147739#3" to="315658899#1" type="passenger"/>
    <trip id="91" depart="230.59" from="-333972428#1" to="-315658896#5" type="passenger"/>
    <trip id="92" depart="233.13" from="-315658896#5" to="315658899#0" type="passenger"/>
    <trip id="93" depart="235.66" from="78628775#0" to="315658900#1" type="passenger"/>
    <trip id="94" depart="238.20" from="-315658900#3" to="-315658897#3" type="passenger"/>
    <trip id="95" depart="240.73" from="301285279#2" to="315658897#4" type="passenger"/>
    <trip id="96" depart="243.26" from="619147739#2" to="-315658897#4" type="passenger"/>
    <trip id="97" depart="245.80" from="78628770#1" to="318747848#2" type="passenger"/>
    <trip id="98" depart="248.33" from="781983103#1" to="315658897#2" type="passenger"/>
    <trip id="99" depart="250.87" from="781983104#0" to="318747848#2" type="passenger"/>
    <trip id="100" depart="253.40" from="-955312948" to="243542153#1" type="passenger"/>
    <trip id="101" depart="255.93" from="301285279#0" to="-315658896#4" type="passenger"/>
    <trip id="102" depart="258.47" from="218915135#2" to="315658897#0" type="passenger"/>
    <trip id="103" depart="261.00" from="315658897#3" to="-315658900#2" type="passenger"/>
    <trip id="104" depart="263.54" from="-315658896#3" to="315658896#3" type="passenger"/>
    <trip id="105" depart="266.07" from="-315658896#6" to="315658899#0" type="passenger"/>
    <trip id="106" depart="268.60" from="315658896#2" to="-315658897#3" type="passenger"/>
    <trip id="107" depart="271.14" from="619147739#2" to="315658884#2" type="passenger"/>
    <trip id="108" depart="273.67" from="318747848#3" to="-955312947#0" type="passenger"/>
    <trip id="109" depart="276.21" from="315658897#0" to="315658884#2" type="passenger"/>
    <trip id="110" depart="278.74" from="-315658897#5" to="921117704" type="passenger"/>
    <trip id="111" depart="281.27" from="-333972428#3" to="781983104#1" type="passenger"/>
    <trip id="112" depart="283.81" from="315658897#2" to="301285279#0" type="passenger"/>
    <trip id="113" depart="286.34" from="-955312947#0" to="-318747848#2" type="passenger"/>
    <trip id="114" depart="288.88" from="788296725" to="-315658897#3" type="passenger"/>
    <trip id="115" depart="291.41" from="301285279#2" to="315658884#1" type="passenger"/>
    <trip id="116" depart="293.94" from="315658897#2" to="301285279#2" type="passenger"/>
    <trip id="117" depart="296.48" from="78628770#1" to="315658896#5" type="passenger"/>
    <trip id="118" depart="299.01" from="318747848#1" to="-315658900#1" type="passenger"/>
    <trip id="119" depart="301.55" from="-955312948" to="315658899#1" type="passenger"/>
    <trip id="120" depart="304.08" from="78628775#2" to="464459667" type="passenger"/>
    <trip id="121" depart="306.61" from="777881144#0" to="315658884#2" type="passenger"/>
    <trip id="122" depart="309.15" from="382947009" to="619147739#2" type="passenger"/>
    <trip id="123" depart="311.68" from="619147739#1" to="-315658897#2" type="passenger"/>
    <trip id="124" depart="314.22" from="-243542153#2" to="-955312947#0" type="passenger"/>
    <trip id="125" depart="316.75" from="-301285279#1" to="333557072#1" type="passenger"/>
    <trip id="126" depart="319.28" from="315658897#3" to="788296724#0" type="passenger"/>
    <trip id="127" depart="321.82" from="-315658896#2" to="315658896#5" type="passenger"/>
    <trip id="128" depart="324.35" from="955312947#0" to="781983103#1" type="passenger"/>
    <trip id="129" depart="326.89" from="-315658896#5" to="243542153#1" type="passenger"/>
    <trip id="130" depart="329.42" from="955312948" to="-955312947#0" type="passenger"/>
    <trip id="131" depart="331.95" from="315658896#3" to="-315658897#0" type="passenger"/>
    <trip id="132" depart="334.49" from="78628770#1" to="788296724#0" type="passenger"/>
    <trip id="133" depart="337.02" from="218915135#1" to="-315658896#4" type="passenger"/>
    <trip id="134" depart="339.56" from="-788296724#0" to="315658900#1" type="passenger"/>
    <trip id="135" depart="342.09" from="78628775#0" to="315658896#3" type="passenger"/>
    <trip id="136" depart="344.62" from="-955312948" to="-315658897#3" type="passenger"/>
    <trip id="137" depart="347.16" from="777881144#0" to="301285279#1" type="passenger"/>
    <trip id="138" depart="349.69" from="464459667" to="-315658897#5" type="passenger"/>
    <trip id="139" depart="352.23" from="-315658884#1" to="-315658897#4" type="passenger"/>
    <trip id="140" depart="354.76" from="-315658884#1" to="-318747848#1" type="passenger"/>
    <trip id="141" depart="357.29" from="318747848#2" to="318747848#3" type="passenger"/>
    <trip id="142" depart="359.83" from="315658896#4" to="-464459667" type="passenger"/>
    <trip id="143" depart="362.36" from="777881144#0" to="-955312947#1" type="passenger"/>
    <trip id="144" depart="364.90" from="619147739#3" to="-243542153#1" type="passenger"/>
    <trip id="145" depart="367.43" from="781983103#1" to="921117704" type="passenger"/>
    <trip id="146" depart="369.96" from="-315658900#3" to="-315658897#5" type="passenger"/>
    <trip id="147" depart="372.50" from="318747848#3" to="315658897#0" type="passenger"/>
    <trip id="148" depart="375.03" from="-333972428#2" to="315658900#2" type="passenger"/>
    <trip id="149" depart="377.57" from="-315658900#2" to="315658899#0" type="passenger"/>
    <trip id="150" depart="380.10" from="955312948" to="-315658896#1" type="passenger"/>
    <trip id="151" depart="382.63" from="315658897#4" to="913406478" type="passenger"/>
    <trip id="152" depart="385.17" from="315658884#2" to="-243542153#2" type="passenger"/>
    <trip id="153" depart="387.70" from="315658900#2" to="315658896#6" type="passenger"/>
    <trip id="154" depart="390.24" from="-315658900#3" to="-315658900#0" type="passenger"/>
    <trip id="155" depart="392.77" from="-315658884#2" to="777881145" type="passenger"/>
    <trip id="156" depart="395.30" from="-955312948" to="-318747848#2" type="passenger"/>
    <trip id="157" depart="397.84" from="913406478" to="-315658897#3" type="passenger"/>
    <trip id="158" depart="400.37" from="-315658897#4" to="301285279#2" type="passenger"/>
    <trip id="159" depart="402.91" from="-315658899#0" to="781983104#0" type="passenger"/>
    <trip id="160" depart="405.44" from="-315658899#0" to="619147739#2" type="passenger"/>
    <trip id="161" depart="407.97" from="301285279#1" to="333972428#2" type="passenger"/>
    <trip id="162" depart="410.51" from="777881144#0" to="781983104#1" type="passenger"/>
    <trip id="163" depart="413.04" from="78628770#1" to="333557072#1" type="passenger"/>
    <trip id="164" depart="415.58" from="218915135#2" to="921117704" type="passenger"/>
    <trip id="165" depart="418.11" from="315658897#5" to="781983104#0" type="passenger"/>
    <trip id="166" depart="420.64" from="-315658884#1" to="955312947#1" type="passenger"/>
    <trip id="167" depart="423.18" from="78628775#0" to="781983104#1" type="passenger"/>
    <trip id="168" depart="425.71" from="-788296725" to="-788296725" type="passenger"/>
    <trip id="169" depart="428.25" from="315658896#3" to="382947009" type="passenger"/>
    <trip id="170" depart="430.78" from="-243542153#1" to="315658896#6" type="passenger"/>
    <trip id="171" depart="433.31" from="301285279#1" to="-243542153#2" type="passenger"/>
    <trip id="172" depart="435.85" from="619147739#2" to="315658897#0" type="passenger"/>
    <trip id="173" depart="438.38" from="315658897#3" to="-333972428#0" type="passenger"/>
    <trip id="174" depart="440.92" from="333972428#0" to="315658899#1" type="passenger"/>
    <trip id="175" depart="443.45" from="333972428#0" to="-315658897#5" type="passenger"/>
    <trip id="176" depart="445.98" from="955312947#1" to="315658900#1" type="passenger"/>
    <trip id="177" depart="448.52" from="-955312947#0" to="-315658900#1" type="passenger"/>
    <trip id="178" depart="451.05" from="-955312948" to="464459667" type="passenger"/>
    <trip id="179" depart="453.59" from="-315658896#6" to="-315658896#1" type="passenger"/>
    <trip id="180" depart="456.12" from="-315658900#3" to="-464459667" type="passenger"/>
    <trip id="181" depart="458.65" from="78628770#1" to="913406478" type="passenger"/>
    <trip id="182" depart="461.19" from="315658897#3" to="955312947#0" type="passenger"/>
    <trip id="183" depart="463.72" from="464459667" to="-315658884#2" type="passenger"/>
    <trip id="184" depart="466.26" from="315658899#1" to="-315658896#1" type="passenger"/>
    <trip id="185" depart="468.79" from="-315658884#2" to="315658897#0" type="passenger"/>
    <trip id="186" depart="471.32" from="318747848#2" to="243542153#3" type="passenger"/>
    <trip id="187" depart="473.86" from="781983103#2" to="315658897#3" type="passenger"/>
    <trip id="188" depart="476.39" from="78628775#0" to="318747848#1" type="passenger"/>
    <trip id="189" depart="478.93" from="777881144#0" to="-955312947#1" type="passenger"/>
    <trip id="190" depart="481.46" from="315658884#1" to="315658884#2" type="passenger"/>
    <trip id="191" depart="483.99" from="955312947#0" to="-318747848#2" type="passenger"/>
    <trip id="192" depart="486.53" from="-315658896#5" to="-315658899#1" type="passenger"/>
    <trip id="193" depart="489.06" from="218915135#1-AddedOffRampEdge" to="777881147#3" type="passenger"/>
    <trip id="194" depart="491.60" from="315658884#2" to="315658900#0" type="passenger"/>
    <trip id="195" depart="494.13" from="-315658896#4" to="777881147#3" type="passenger"/>
    <trip id="196" depart="496.66" from="619147739#1" to="-955312947#0" type="passenger"/>
    <trip id="197" depart="499.20" from="315658899#1" to="315658900#3" type="passenger"/>
    <trip id="198" depart="501.73" from="-315658896#2" to="781983103#2" type="passenger"/>
    <trip id="199" depart="504.27" from="315658884#2" to="315658897#4" type="passenger"/>
    <trip id="200" depart="506.80" from="-318747848#2" to="315658896#2" type="passenger"/>
    <trip id="201" depart="509.33" from="-315658896#6" to="315658896#1" type="passenger"/>
    <trip id="202" depart="511.87" from="301285279#2" to="333557072#2" type="passenger"/>
    <trip id="203" depart="514.40" from="-315658897#0" to="955312947#0" type="passenger"/>
    <trip id="204" depart="516.94" from="78628775#0" to="-955312947#0" type="passenger"/>
    <trip id="205" depart="519.47" from="619147739#2" to="619147739#2" type="passenger"/>
    <trip id="206" depart="522.00" from="-333972428#2" to="-315658897#0" type="passenger"/>
    <trip id="207" depart="524.54" from="777881144#0" to="581906883" type="passenger"/>
    <trip id="208" depart="527.07" from="-333972428#1" to="315658896#4" type="passenger"/>
    <trip id="209" depart="529.61" from="-315658896#4" to="581906883" type="passenger"/>
    <trip id="210" depart="532.14" from="-315658896#5" to="315658896#3" type="passenger"/>
    <trip id="211" depart="534.67" from="-464459667" to="315658899#1" type="passenger"/>
    <trip id="212" depart="537.21" from="218915135#2" to="-315658896#2" type="passenger"/>
    <trip id="213" depart="539.74" from="78628770#1" to="781983104#1" type="passenger"/>
    <trip id="214" depart="542.28" from="315658900#0" to="243542153#3" type="passenger"/>
    <trip id="215" depart="544.81" from="955312947#0" to="-315658897#1" type="passenger"/>
    <trip id="216" depart="547.34" from="781983103#1" to="788296725" type="passenger"/>
    <trip id="217" depart="549.88" from="-315658897#3" to="315658896#2" type="passenger"/>
    <trip id="218" depart="552.41" from="913406478" to="315658884#1" type="passenger"/>
    <trip id="219" depart="554.95" from="315658897#0" to="-315658896#4" type="passenger"/>
    <trip id="220" depart="557.48" from="619147739#3" to="315658896#5" type="passenger"/>
    <trip id="221" depart="560.01" from="315658884#1" to="243542153#1" type="passenger"/>
    <trip id="222" depart="562.55" from="315658884#1" to="781983103#2" type="passenger"/>
    <trip id="223" depart="565.08" from="315658900#2" to="-315658896#1" type="passenger"/>
    <trip id="224" depart="567.62" from="-315658896#2" to="243542153#1" type="passenger"/>
    <trip id="225" depart="570.15" from="-315658897#1" to="-464459667" type="passenger"/>
    <trip id="226" depart="572.68" from="315658896#3" to="301285279#0" type="passenger"/>
    <trip id="227" depart="575.22" from="243542153#2" to="-315658900#2" type="passenger"/>
    <trip id="228" depart="577.75" from="243542153#2" to="243542153#3" type="passenger"/>
    <trip id="229" depart="580.29" from="315658900#1" to="333557072#2" type="passenger"/>
    <trip id="230" depart="582.82" from="333972428#0" to="-243542153#2" type="passenger"/>
    <trip id="231" depart="585.35" from="315658897#0" to="315658899#0" type="passenger"/>
    <trip id="232" depart="587.89" from="788296725" to="315658897#5" type="passenger"/>
    <trip id="233" depart="590.42" from="315658884#2" to="318747848#2" type="passenger"/>
    <trip id="234" depart="592.96" from="301285279#1" to="301285279#1" type="passenger"/>
    <trip id="235" depart="595.49" from="315658897#2" to="379943755#1" type="passenger"/>
    <trip id="236" depart="598.02" from="-955312947#0" to="333972428#3" type="passenger"/>
    <trip id="237" depart="600.56" from="619147739#2" to="-315658896#5" type="passenger"/>
    <trip id="238" depart="603.09" from="315658900#1" to="-955312948" type="passenger"/>
    <trip id="239" depart="605.63" from="78628775#0" to="464459667" type="passenger"/>
    <trip id="240" depart="608.16" from="315658884#2" to="315658884#2" type="passenger"/>
    <trip id="241" depart="610.69" from="315658897#1" to="315658899#1" type="passenger"/>
    <trip id="242" depart="613.23" from="218915135#0" to="315658900#0" type="passenger"/>
    <trip id="243" depart="615.76" from="-315658884#2" to="315658896#5" type="passenger"/>
    <trip id="244" depart="618.30" from="301285279#2" to="-315658897#2" type="passenger"/>
    <trip id="245" depart="620.83" from="-333972428#2" to="315658897#0" type="passenger"/>
    <trip id="246" depart="623.36" from="-333972428#3" to="781983103#2" type="passenger"/>
    <trip id="247" depart="625.90" from="-315658896#2" to="333972428#3" type="passenger"/>
    <trip id="248" depart="628.43" from="-315658900#1" to="-315658884#2" type="passenger"/>
    <trip id="249" depart="630.97" from="318747848#1" to="-318747848#3" type="passenger"/>
    <trip id="250" depart="633.50" from="-315658900#2" to="921117704" type="passenger"/>
    <trip id="251" depart="636.03" from="-581906883" to="315658897#5" type="passenger"/>
    <trip id="252" depart="638.57" from="913405361" to="333972428#2" type="passenger"/>
    <trip id="253" depart="641.10" from="-955312947#1" to="315658896#2" type="passenger"/>
    <trip id="254" depart="643.64" from="-788296725" to="333972428#3" type="passenger"/>
    <trip id="255" depart="646.17" from="-333972428#1" to="315658899#0" type="passenger"/>
    <trip id="256" depart="648.70" from="-955312948" to="-315658897#4" type="passenger"/>
    <trip id="257" depart="651.24" from="315658884#2" to="-315658896#4" type="passenger"/>
    <trip id="258" depart="653.77" from="-333972428#2" to="301285279#2" type="passenger"/>
    <trip id="259" depart="656.31" from="315658896#2" to="-315658884#2" type="passenger"/>
    <trip id="260" depart="658.84" from="78628775#0" to="781983103#1" type="passenger"/>
    <trip id="261" depart="661.37" from="301285279#1" to="315658899#1" type="passenger"/>
    <trip id="262" depart="663.91" from="-315658896#6" to="955312947#0" type="passenger"/>
    <trip id="263" depart="666.44" from="315658897#1" to="301285279#1" type="passenger"/>
    <trip id="264" depart="668.98" from="-315658896#4" to="315658897#3" type="passenger"/>
    <trip id="265" depart="671.51" from="781983104#0" to="382947009" type="passenger"/>
    <trip id="266" depart="674.04" from="-315658884#1" to="921117704" type="passenger"/>
    <trip id="267" depart="676.58" from="315658899#1" to="315658896#3" type="passenger"/>
    <trip id="268" depart="679.11" from="315658897#3" to="315658896#1" type="passenger"/>
    <trip id="269" depart="681.65" from="619147739#3" to="-315658900#0" type="passenger"/>
    <trip id="270" depart="684.18" from="-315658896#4" to="-315658896#2" type="passenger"/>
    <trip id="271" depart="686.71" from="-243542153#2" to="315658897#2" type="passenger"/>
    <trip id="272" depart="689.25" from="315658896#2" to="777881144#1" type="passenger"/>
    <trip id="273" depart="691.78" from="-315658896#2" to="315658896#4" type="passenger"/>
    <trip id="274" depart="694.32" from="315658900#1" to="-315658897#1" type="passenger"/>
    <trip id="275" depart="696.85" from="318747848#3" to="382947009" type="passenger"/>
    <trip id="276" depart="699.38" from="78628775#2" to="-315658896#4" type="passenger"/>
    <trip id="277" depart="701.92" from="-333972428#3" to="781983104#1" type="passenger"/>
    <trip id="278" depart="704.45" from="781983104#0" to="913406478" type="passenger"/>
    <trip id="279" depart="706.99" from="301285279#0" to="781983103#2" type="passenger"/>
    <trip id="280" depart="709.52" from="-315658896#5" to="788296725" type="passenger"/>
    <trip id="281" depart="712.05" from="315658896#3" to="333557072#1" type="passenger"/>
    <trip id="282" depart="714.59" from="301285279#0" to="315658900#2" type="passenger"/>
    <trip id="283" depart="717.12" from="-315658900#1" to="-315658896#5" type="passenger"/>
    <trip id="284" depart="719.66" from="78628770#1" to="-318747848#3" type="passenger"/>
    <trip id="285" depart="722.19" from="318747848#1" to="777881147#3" type="passenger"/>
    <trip id="286" depart="724.72" from="-315658900#3" to="464459667" type="passenger"/>
    <trip id="287" depart="727.26" from="315658897#2" to="315658900#3" type="passenger"/>
    <trip id="288" depart="729.79" from="777881144#0" to="-955312948" type="passenger"/>
    <trip id="289" depart="732.33" from="619147739#0" to="315658897#1" type="passenger"/>
    <trip id="290" depart="734.86" from="301285279#0" to="788296725" type="passenger"/>
    <trip id="291" depart="737.39" from="78628775#0" to="-315658884#2" type="passenger"/>
    <trip id="292" depart="739.93" from="-315658884#1" to="777881145" type="passenger"/>
    <trip id="293" depart="742.46" from="619147739#0" to="-315658884#2" type="passenger"/>
    <trip id="294" depart="745.00" from="781983104#0" to="-315658900#2" type="passenger"/>
    <trip id="295" depart="747.53" from="-315658897#3" to="-315658900#2" type="passenger"/>
    <trip id="296" depart="750.06" from="301285279#1" to="243542153#1" type="passenger"/>
    <trip id="297" depart="752.60" from="315658897#4" to="333972428#1" type="passenger"/>
    <trip id="298" depart="755.13" from="315658899#1" to="315658897#0" type="passenger"/>
    <trip id="299" depart="757.67" from="-315658896#3" to="781983104#1" type="passenger"/>
    <trip id="300" depart="760.20" from="619147739#0" to="315658896#5" type="passenger"/>
    <trip id="301" depart="762.73" from="955312948" to="-315658896#1" type="passenger"/>
    <trip id="302" depart="765.27" from="913406478" to="781983103#2" type="passenger"/>
    <trip id="303" depart="767.80" from="315658884#1" to="315658896#2" type="passenger"/>
    <trip id="304" depart="770.34" from="218915135#1" to="-315658900#0" type="passenger"/>
    <trip id="305" depart="772.87" from="315658899#1" to="-315658896#3" type="passenger"/>
    <trip id="306" depart="775.40" from="-315658896#2" to="315658897#3" type="passenger"/>
    <trip id="307" depart="777.94" from="78628770#1" to="243542153#3" type="passenger"/>
    <trip id="308" depart="780.47" from="382947009" to="-315658896#3" type="passenger"/>
    <trip id="309" depart="783.01" from="-243542153#1" to="781983103#1" type="passenger"/>
    <trip id="310" depart="785.54" from="301285279#0" to="333972428#2" type="passenger"/>
    <trip id="311" depart="788.07" from="315658896#1" to="-315658900#2" type="passenger"/>
    <trip id="312" depart="790.61" from="315658897#0" to="777881145" type="passenger"/>
    <trip id="313" depart="793.14" from="218915135#2" to="218915135#2" type="passenger"/>
    <trip id="314" depart="795.68" from="-315658900#1" to="913406478" type="passenger"/>
    <trip id="315" depart="798.21" from="218915135#2" to="243542153#1" type="passenger"/>
    <trip id="316" depart="800.74" from="-315658897#3" to="-315658896#4" type="passenger"/>
    <trip id="317" depart="803.28" from="-315658897#0" to="315658897#5" type="passenger"/>
    <trip id="318" depart="805.81" from="-315658899#1" to="-464459667" type="passenger"/>
    <trip id="319" depart="808.35" from="-315658884#2" to="243542153#3" type="passenger"/>
    <trip id="320" depart="810.88" from="315658899#0" to="464459667" type="passenger"/>
    <trip id="321" depart="813.41" from="315658896#1" to="-315658896#4" type="passenger"/>
    <trip id="322" depart="815.95" from="-243542153#3" to="955312947#1" type="passenger"/>