<?xml version="1.0" encoding="UTF-8"?>

<!-- generated on 2026-04-15T00:23:04.991114+09:00 by Eclipse SUMO netconvert 1.26.0
<netconvertConfiguration xmlns:xsi="http://www.w3.org/2001/XMLSchema-instance" xsi:noNamespaceSchemaLocation="http://sumo.dlr.de/xsd/netconvertConfiguration.xsd">

    <input>
        <osm-files value="/Users/junlee/Desktop/2026-1/js/result/2026-04-15_00-06-49/sumo_nets/cw_6068/map.osm"/>
    </input>

    <output>
        <output-file value="/Users/junlee/Desktop/2026-1/js/result/2026-04-15_00-06-49/sumo_nets/cw_6068/network.net.xml"/>
    </output>

    <projection>
        <proj.utm value="true"/>
    </projection>

    <processing>
        <geometry.remove value="true"/>
        <roundabouts.guess value="true"/>
    </processing>

    <tls_building>
        <tls.guess value="true"/>
        <tls.guess-signals value="true"/>
    </tls_building>

    <ramp_guessing>
        <ramps.guess value="true"/>
    </ramp_guessing>

    <edge_removal>
        <keep-edges.by-vclass value="passenger,pedestrian"/>
    </edge_removal>

    <junctions>
        <no-turnarounds value="true"/>
        <junctions.join value="true"/>
    </junctions>

    <pedestrian>
        <sidewalks.guess value="true"/>
        <sidewalks.guess.max-speed value="13.89"/>
        <crossings.guess value="true"/>
    </pedestrian>

    <report>
        <verbose value="true"/>
    </report>

</netconvertConfiguration>
-->

<net version="1.20" junctionCornerDetail="5" walkingareas="true" limitTurnSpeed="5.50" xmlns:xsi="http://www.w3.org/2001/XMLSchema-instance" xsi:noNamespaceSchemaLocation="http://sumo.dlr.de/xsd/net_file.xsd">

    <location netOffset="-320494.20,-4158250.41" convBoundary="0.00,0.00,1184.04,800.44" origBoundary="126.967779,37.552576,126.988830,37.561219" projParameter="+proj=utm +zone=52 +ellps=WGS84 +datum=WGS84 +units=m +no_defs"/>

    <type id="highway.footway" priority="1" numLanes="1" speed="2.78" allow="pedestrian" oneway="1" width="2.00"/>
    <type id="highway.path" priority="1" numLanes="1" speed="5.56" allow="pedestrian bicycle" oneway="0" width="2.00"/>
    <type id="highway.pedestrian" priority="1" numLanes="1" speed="2.78" allow="pedestrian" oneway="1" width="2.00"/>
    <type id="highway.primary" priority="12" numLanes="2" speed="27.78" disallow="tram rail_urban rail rail_electric rail_fast ship container cable_car subway aircraft wheelchair scooter drone" oneway="0"/>
    <type id="highway.primary_link" priority="7" numLanes="1" speed="22.22" disallow="tram rail_urban rail rail_electric rail_fast ship container cable_car subway aircraft wheelchair scooter drone" oneway="0"/>
    <type id="highway.residential" priority="3" numLanes="1" speed="13.89" disallow="tram rail_urban rail rail_electric rail_fast ship container cable_car subway aircraft wheelchair scooter drone" oneway="0"/>
    <type id="highway.secondary" priority="11" numLanes="1" speed="27.78" disallow="tram rail_urban rail rail_electric rail_fast ship container cable_car subway aircraft wheelchair scooter drone" oneway="0"/>
    <type id="highway.service" priority="1" numLanes="1" speed="5.56" allow="pedestrian delivery bicycle" oneway="0"/>
    <type id="highway.steps" priority="1" numLanes="1" speed="1.39" allow="pedestrian" oneway="1" width="2.00"/>
    <type id="highway.unclassified" priority="4" numLanes="1" speed="13.89" disallow="tram rail_urban rail rail_electric rail_fast ship container cable_car subway aircraft wheelchair scooter drone" oneway="0"/>

    <edge id=":10253014033_0" function="internal">
        <lane id=":10253014033_0_0" index="0" disallow="tram rail_urban rail rail_electric rail_fast ship container cable_car subway aircraft wheelchair scooter drone" speed="27.78" length="5.26" shape="1140.77,140.25 1136.50,143.33"/>
    </edge>
    <edge id=":10253014033_w0" function="walkingarea">
        <lane id=":10253014033_w0_0" index="0" allow="pedestrian" speed="2.78" length="4.72" width="3.20" shape="1139.68,144.85 1141.36,143.76 1141.01,142.92 1141.01,142.54 1141.12,142.18 1141.36,141.85 1141.70,141.55 1139.83,138.95 1138.90,139.37 1138.44,139.39 1137.97,139.27 1137.51,139.04 1137.05,138.67 1135.69,140.13 1136.16,140.80 1136.20,141.12 1136.12,141.43 1135.91,141.74 1135.57,142.03 1137.44,144.63 1138.32,144.19 1138.71,144.17 1139.07,144.27 1139.39,144.50"/>
    </edge>
    <edge id=":10712099890_w0" function="walkingarea">
        <lane id=":10712099890_w0_0" index="0" allow="pedestrian" speed="2.78" length="4.03" width="2.00" shape="811.89,512.01 812.20,510.03 811.39,509.73 811.12,509.46 810.94,509.12 810.84,508.70 810.84,508.20 808.84,508.06 808.62,508.88 808.39,509.15 808.08,509.34 807.70,509.43 807.24,509.43 807.07,511.42"/>
    </edge>
    <edge id=":10712099893_w0" function="walkingarea">
        <lane id=":10712099893_w0_0" index="0" allow="pedestrian" speed="2.78" length="4.06" width="2.00" shape="837.61,472.46 839.60,472.23 839.02,467.25 837.03,467.49 836.96,468.32 836.79,468.62 836.52,468.84 836.16,468.99 835.71,469.05 835.81,471.05 836.74,471.17 837.08,471.36 837.34,471.64 837.52,472.00"/>
    </edge>
    <edge id=":10727322977_w0" function="walkingarea">
        <lane id=":10727322977_w0_0" index="0" allow="pedestrian" speed="2.78" length="4.03" width="2.00" shape="808.13,473.89 810.13,473.87 810.29,473.03 810.50,472.72 810.81,472.50 811.19,472.36 811.67,472.29 811.57,470.29 810.73,470.17 810.43,469.97 810.22,469.69 810.08,469.33 810.03,468.87 808.03,468.93"/>
    </edge>
    <edge id=":10727322978_0" function="internal">
        <lane id=":10727322978_0_0" index="0" disallow="tram rail_urban rail rail_electric rail_fast ship container cable_car subway aircraft wheelchair scooter drone" speed="27.78" length="5.95" shape="810.73,420.24 805.42,417.46"/>
        <lane id=":10727322978_0_1" index="1" disallow="tram rail_urban rail rail_electric rail_fast ship container cable_car subway aircraft wheelchair scooter drone" speed="27.78" length="5.95" shape="812.19,417.39 806.96,414.66"/>
    </edge>
    <edge id=":10727322978_w0" function="walkingarea">
        <lane id=":10727322978_w0_0" index="0" allow="pedestrian" speed="2.78" length="5.10" width="3.20" shape="806.70,422.53 808.70,422.47 808.83,421.72 809.00,421.52 809.26,421.45 809.59,421.49 809.99,421.66 812.92,415.97 807.73,413.25 804.65,418.87 805.77,419.74 806.16,420.30 806.45,420.95 806.63,421.69"/>
    </edge>
    <edge id=":10864285557_w0" function="walkingarea">
        <lane id=":10864285557_w0_0" index="0" allow="pedestrian" speed="2.78" length="0.10" width="3.20" shape="1079.38,605.23 1077.64,611.39"/>
    </edge>
    <edge id=":11059693772_0" function="internal">
        <lane id=":11059693772_0_0" index="0" disallow="tram rail_urban rail rail_electric rail_fast ship container cable_car subway aircraft wheelchair scooter drone" speed="27.78" length="0.30" shape="789.18,134.45 789.38,134.23"/>
    </edge>
    <edge id=":11225387918_0" function="internal">
        <lane id=":11225387918_0_0" index="0" disallow="tram rail_urban rail rail_electric rail_fast ship container cable_car subway aircraft wheelchair scooter drone" speed="27.78" length="5.12" shape="837.07,226.23 832.15,224.83"/>
    </edge>
    <edge id=":11225387918_w0" function="walkingarea">
        <lane id=":11225387918_w0_0" index="0" allow="pedestrian" speed="2.78" length="4.60" width="3.20" shape="836.63,227.77 837.51,224.69 836.69,224.27 836.44,223.97 836.30,223.61 836.26,223.20 836.33,222.72 834.39,222.24 834.03,223.00 833.76,223.22 833.43,223.35 833.04,223.37 832.59,223.29 831.71,226.36 832.53,226.77 832.78,227.07 832.92,227.43 832.96,227.84 832.88,228.32 834.82,228.81 835.18,228.04 835.46,227.82 835.79,227.70 836.18,227.68"/>
    </edge>
    <edge id=":11418728529_0" function="internal">
        <lane id=":11418728529_0_0" index="0" allow="pedestrian delivery bicycle" speed="5.56" length="6.63" shape="741.68,555.69 735.06,555.93"/>
    </edge>
    <edge id=":11418728529_1" function="internal">
        <lane id=":11418728529_1_0" index="0" allow="pedestrian delivery bicycle" speed="5.56" length="6.69" shape="734.91,552.74 741.60,552.50"/>
    </edge>
    <edge id=":11418728529_w0" function="walkingarea">
        <lane id=":11418728529_w0_0" index="0" allow="pedestrian" speed="2.78" length="6.21" width="6.40" shape="741.73,557.29 741.55,550.90 740.77,550.76 740.53,550.57 740.40,550.29 740.38,549.93 740.46,549.49 738.54,548.95 737.87,550.10 737.32,550.52 736.64,550.83 735.81,551.04 734.84,551.14 735.14,557.53 735.95,557.66 736.21,557.85 736.38,558.13 736.45,558.49 736.43,558.95 738.41,559.22 738.89,558.19 739.37,557.82 740.00,557.54 740.78,557.37"/>
    </edge>
    <edge id=":11449715462_w0" function="walkingarea">
        <lane id=":11449715462_w0_0" index="0" allow="pedestrian" speed="2.78" length="3.99" width="2.00" shape="949.56,364.85 950.23,362.96 948.51,362.29 947.91,362.04 947.30,361.83 946.54,361.64 945.50,361.44 944.80,363.35 945.56,363.65 945.76,363.90 945.85,364.21 945.82,364.59 945.68,365.04 947.52,365.81 948.02,365.05 948.34,364.84 948.70,364.73 949.11,364.73"/>
    </edge>
    <edge id=":11449715463_0" function="internal">
        <lane id=":11449715463_0_0" index="0" disallow="pedestrian tram rail_urban rail rail_electric rail_fast ship container cable_car subway aircraft wheelchair scooter drone" speed="13.89" length="5.05" shape="937.57,396.93 932.60,396.02"/>
    </edge>
    <edge id=":11449715463_1" function="internal">
        <lane id=":11449715463_1_0" index="0" disallow="pedestrian tram rail_urban rail rail_electric rail_fast ship container cable_car subway aircraft wheelchair scooter drone" speed="13.89" length="5.05" shape="933.17,392.87 938.14,393.78"/>
    </edge>
    <edge id=":11449715463_c0" function="crossing" crossingEdges="315658897#1 -315658897#1">
        <lane id=":11449715463_c0_0" index="0" allow="pedestrian" speed="2.78" length="6.40" width="4.00" shape="935.95,391.75 934.80,398.05" outlineShape="937.93,392.01 936.75,398.50 932.83,397.69 933.98,391.39"/>
    </edge>
    <edge id=":11449715463_w0" function="walkingarea">
        <lane id=":11449715463_w0_0" index="0" allow="pedestrian" speed="2.78" length="3.49" width="4.00" shape="932.31,397.59 931.95,399.56 936.92,400.47 937.28,398.50 936.76,398.40 932.83,397.69"/>
    </edge>
    <edge id=":11449715463_w1" function="walkingarea">
        <lane id=":11449715463_w1_0" index="0" allow="pedestrian" speed="2.78" length="3.59" width="4.00" shape="933.98,391.39 937.91,392.11 938.43,392.20 938.79,390.24 937.90,388.58 936.05,387.81 933.82,389.33 933.46,391.30"/>
    </edge>
    <edge id=":11449716078_0" function="internal">
        <lane id=":11449716078_0_0" index="0" allow="pedestrian delivery bicycle" speed="7.16" length="7.31" shape="804.79,388.57 804.96,391.06 805.41,392.98 806.14,394.35 807.13,395.16"/>
    </edge>
    <edge id=":11449716078_1" function="internal">
        <lane id=":11449716078_1_0" index="0" allow="pedestrian delivery bicycle" speed="4.72" length="5.66" shape="797.96,390.98 799.57,391.44 800.71,391.20 801.38,390.26 801.59,388.61"/>
    </edge>
    <edge id=":11449716078_2" function="internal">
        <lane id=":11449716078_2_0" index="0" disallow="tram rail_urban rail rail_electric rail_fast ship container cable_car subway aircraft wheelchair scooter drone" speed="27.78" length="10.08" shape="797.96,390.98 807.13,395.16"/>
        <lane id=":11449716078_2_1" index="1" disallow="tram rail_urban rail rail_electric rail_fast ship container cable_car subway aircraft wheelchair scooter drone" speed="27.78" length="10.08" shape="796.61,393.88 805.78,398.06"/>
    </edge>
    <edge id=":11449716078_w0" function="walkingarea">
        <lane id=":11449716078_w0_0" index="0" allow="pedestrian" speed="2.78" length="6.74" width="6.40" shape="805.10,399.51 807.81,393.71 807.05,392.86 806.78,392.10 806.57,391.13 806.45,389.95 806.39,388.54 799.99,388.63 799.85,389.40 799.66,389.61 799.40,389.70 799.06,389.67 798.64,389.52 795.94,395.33"/>
    </edge>
    <edge id=":11449716195_0" function="internal">
        <lane id=":11449716195_0_0" index="0" disallow="pedestrian tram rail_urban rail rail_electric rail_fast ship container cable_car subway aircraft wheelchair scooter drone" speed="13.89" length="5.00" shape="965.86,303.11 965.38,308.09"/>
    </edge>
    <edge id=":11449716195_1" function="internal">
        <lane id=":11449716195_1_0" index="0" disallow="pedestrian tram rail_urban rail rail_electric rail_fast ship container cable_car subway aircraft wheelchair scooter drone" speed="13.89" length="5.00" shape="962.19,307.79 962.67,302.81"/>
    </edge>
    <edge id=":11449716195_c0" function="crossing" crossingEdges="-318747848#5 318747848#5">
        <lane id=":11449716195_c0_0" index="0" allow="pedestrian" speed="2.78" length="6.40" width="4.00" shape="960.84,305.14 967.21,305.76" outlineShape="960.93,303.14 967.50,303.78 967.02,307.75 960.65,307.13 961.03,303.15 961.08,302.65 959.09,302.46 957.46,303.74 957.17,305.72 958.61,307.44 960.60,307.63 960.65,307.13"/>
    </edge>
    <edge id=":11449716195_w0" function="walkingarea">
        <lane id=":11449716195_w0_0" index="0" allow="pedestrian" speed="2.78" length="3.46" width="4.00" shape="966.97,308.25 968.96,308.44 969.44,303.46 967.45,303.27 967.40,303.77 967.02,307.75"/>
    </edge>
    <edge id=":11449716195_w1" function="walkingarea">
        <lane id=":11449716195_w1_0" index="0" allow="pedestrian" speed="2.78" length="3.51" width="4.00" shape="960.65,307.13 961.03,303.15 961.08,302.65 959.09,302.46 957.46,303.74 957.17,305.72 958.61,307.44 960.60,307.63"/>
    </edge>
    <edge id=":11449716196_w0" function="walkingarea">
        <lane id=":11449716196_w0_0" index="0" allow="pedestrian" speed="2.78" length="3.20" width="6.40" shape="904.53,302.20 901.33,302.21 907.73,302.19 904.53,302.20"/>
    </edge>
    <edge id=":11449716198_0" function="internal">
        <lane id=":11449716198_0_0" index="0" disallow="pedestrian tram rail_urban rail rail_electric rail_fast ship container cable_car subway aircraft wheelchair scooter drone" speed="13.89" length="4.99" shape="875.07,257.10 870.08,257.02"/>
    </edge>
    <edge id=":11449716198_1" function="internal">
        <lane id=":11449716198_1_0" index="0" disallow="pedestrian tram rail_urban rail rail_electric rail_fast ship container cable_car subway aircraft wheelchair scooter drone" speed="13.89" length="4.99" shape="870.13,253.82 875.12,253.90"/>
    </edge>
    <edge id=":11449716198_c0" function="crossing" crossingEdges="318747848#4 -318747848#4">
        <lane id=":11449716198_c0_0" index="0" allow="pedestrian" speed="2.78" length="6.40" width="4.00" shape="872.65,252.26 872.55,258.66" outlineShape="874.65,252.29 874.55,258.69 870.55,258.63 870.65,252.23"/>
    </edge>
    <edge id=":11449716198_w0" function="walkingarea">
        <lane id=":11449716198_w0_0" index="0" allow="pedestrian" speed="2.78" length="3.50" width="4.00" shape="870.05,258.62 870.01,260.62 871.53,262.19 873.53,262.18 875.01,260.70 875.04,258.70 874.55,258.69 870.55,258.63"/>
    </edge>
    <edge id=":11449716198_w1" function="walkingarea">
        <lane id=":11449716198_w1_0" index="0" allow="pedestrian" speed="2.78" length="3.45" width="4.00" shape="870.65,252.23 874.65,252.29 875.14,252.30 875.17,250.30 870.19,250.22 870.16,252.22"/>
    </edge>
    <edge id=":11449716203_0" function="internal">
        <lane id=":11449716203_0_0" index="0" allow="pedestrian delivery bicycle" speed="5.56" length="5.02" shape="821.03,279.96 816.14,278.78"/>
    </edge>
    <edge id=":11449716203_1" function="internal">
        <lane id=":11449716203_1_0" index="0" allow="pedestrian delivery bicycle" speed="5.56" length="5.02" shape="816.89,275.67 821.78,276.85"/>
    </edge>
    <edge id=":11449716203_w0" function="walkingarea">
        <lane id=":11449716203_w0_0" index="0" allow="pedestrian" speed="2.78" length="5.04" width="6.40" shape="820.65,281.51 822.15,275.29 817.27,274.11 815.77,280.34 816.51,280.68 816.72,280.95 816.81,281.26 816.79,281.64 816.66,282.07 818.51,282.83 819.05,281.94 819.39,281.67 819.76,281.50 820.19,281.45"/>
    </edge>
    <edge id=":11449716209_0" function="internal">
        <lane id=":11449716209_0_0" index="0" disallow="pedestrian tram rail_urban rail rail_electric rail_fast ship container cable_car subway aircraft wheelchair scooter drone" speed="13.89" length="5.00" shape="844.20,302.05 844.06,297.05"/>
    </edge>
    <edge id=":11449716209_1" function="internal">
        <lane id=":11449716209_1_0" index="0" disallow="pedestrian tram rail_urban rail rail_electric rail_fast ship container cable_car subway aircraft wheelchair scooter drone" speed="13.89" length="5.00" shape="847.26,296.96 847.40,301.96"/>
    </edge>
    <edge id=":11449716209_c0" function="crossing" crossingEdges="-315658884#2 315658884#2">
        <lane id=":11449716209_c0_0" index="0" allow="pedestrian" speed="2.78" length="6.40" width="4.00" shape="848.93,299.41 842.53,299.59" outlineShape="849.08,301.41 842.49,301.59 842.48,297.59 848.87,297.41"/>
    </edge>
    <edge id=":11449716209_w0" function="walkingarea">
        <lane id=":11449716209_w0_0" index="0" allow="pedestrian" speed="2.78" length="3.49" width="4.00" shape="842.46,297.09 840.46,297.15 839.00,298.69 839.06,300.69 840.60,302.15 842.60,302.09 842.59,301.59 842.48,297.59"/>
    </edge>
    <edge id=":11449716209_w1" function="walkingarea">
        <lane id=":11449716209_w1_0" index="0" allow="pedestrian" speed="2.78" length="3.47" width="4.00" shape="848.87,297.41 848.99,301.41 849.00,301.91 851.00,301.86 850.86,296.85 848.86,296.91"/>
    </edge>
    <edge id=":11449716210_0" function="internal">
        <lane id=":11449716210_0_0" index="0" allow="pedestrian delivery bicycle" speed="5.56" length="5.02" shape="824.78,344.06 819.76,344.36"/>
    </edge>
    <edge id=":11449716210_1" function="internal">
        <lane id=":11449716210_1_0" index="0" allow="pedestrian delivery bicycle" speed="5.56" length="5.02" shape="819.57,341.17 824.58,340.87"/>
    </edge>
    <edge id=":11449716210_w0" function="walkingarea">
        <lane id=":11449716210_w0_0" index="0" allow="pedestrian" speed="2.78" length="5.03" width="6.40" shape="824.88,345.66 824.49,339.27 823.62,339.13 823.28,338.90 823.00,338.58 822.79,338.15 822.64,337.62 820.68,338.01 820.68,338.84 820.53,339.14 820.28,339.36 819.93,339.51 819.48,339.57 819.86,345.96"/>
    </edge>
    <edge id=":12830597832_w0" function="walkingarea">
        <lane id=":12830597832_w0_0" index="0" allow="pedestrian" speed="2.78" length="3.94" width="2.00" shape="824.17,173.47 824.18,171.47 823.37,171.30 823.11,171.09 822.95,170.81 822.88,170.44 822.91,169.98 820.94,169.67 820.70,171.17 820.50,172.07 820.24,172.87 819.89,173.41 819.46,173.54 821.97,174.92 822.36,174.11 822.69,173.83 823.10,173.63 823.59,173.51"/>
    </edge>
    <edge id=":12920546289_w0" function="walkingarea">
        <lane id=":12920546289_w0_0" index="0" allow="pedestrian" speed="2.78" length="4.70" width="2.00" shape="912.60,548.78 914.05,547.41 913.61,546.66 913.56,546.28 913.64,545.88 913.83,545.48 914.14,545.07 912.65,543.73 911.91,544.15 911.48,544.12 911.01,543.92 910.50,543.56 909.95,543.04 908.49,544.41 908.90,545.03 908.89,545.26 908.74,545.44 908.45,545.56 908.03,545.63 908.19,547.62 910.05,547.64 910.83,547.78 911.52,548.02 912.11,548.35"/>
    </edge>
    <edge id=":1936511304_w0" function="walkingarea">
        <lane id=":1936511304_w0_0" index="0" allow="pedestrian" speed="2.78" length="2.00" width="4.00" shape="0.00,148.88 1.62,147.71 -1.62,150.05 -0.00,148.88"/>
    </edge>
    <edge id=":2322086678_w0" function="walkingarea">
        <lane id=":2322086678_w0_0" index="0" allow="pedestrian" speed="2.78" length="2.00" width="4.00" shape="615.99,593.41 614.92,591.72 617.06,595.10 615.99,593.41"/>
    </edge>
    <edge id=":2457731072_w0" function="walkingarea">
        <lane id=":2457731072_w0_0" index="0" allow="pedestrian" speed="2.78" length="3.14" width="2.00" shape="1081.85,103.23 1082.21,100.91 1081.32,100.30 1080.92,100.15 1080.56,99.97 1080.21,99.67 1079.86,99.15 1078.10,100.09 1078.36,100.93 1078.33,101.31 1078.20,101.67 1077.96,102.01 1077.62,102.33 1079.36,103.97 1080.30,103.16 1080.73,102.96 1081.14,102.91 1081.51,103.00"/>
    </edge>
    <edge id=":2457731128_w0" function="walkingarea">
        <lane id=":2457731128_w0_0" index="0" allow="pedestrian" speed="2.78" length="4.40" width="2.00" shape="826.95,126.60 828.54,125.37 828.17,124.64 828.18,124.31 828.31,124.01 828.57,123.74 828.95,123.50 828.03,121.72 826.96,122.03 826.47,121.99 826.00,121.81 825.55,121.50 825.13,121.05 823.57,122.31 823.94,123.03 823.93,123.34 823.80,123.62 823.53,123.88 823.14,124.10 823.98,125.92 825.11,125.63 825.63,125.67 826.10,125.85 826.55,126.16"/>
    </edge>
    <edge id=":2457731154_w0" function="walkingarea">
        <lane id=":2457731154_w0_0" index="0" allow="pedestrian" speed="2.78" length="6.55" width="2.00" shape="1008.45,154.47 1006.57,151.25 1003.81,152.68 1002.76,153.04 1001.95,153.18 1001.37,153.09 1001.01,152.77 999.26,153.74 999.75,154.96 999.78,155.44 999.67,155.84 999.41,156.15 999.02,156.38 999.76,158.23 1001.66,157.52 1003.08,157.05 1004.26,156.65 1005.40,156.19 1006.73,155.51"/>
    </edge>
    <edge id=":2457731155_w0" function="walkingarea">
        <lane id=":2457731155_w0_0" index="0" allow="pedestrian" speed="2.78" length="5.19" width="2.00" shape="874.15,162.25 873.01,160.61 871.09,161.72 870.34,161.96 869.55,162.13 868.59,162.32 867.33,162.61 867.83,164.54 868.53,164.46 868.67,164.54 868.68,164.71 868.56,164.96 868.29,165.29 869.79,166.62 871.26,164.85 871.78,164.22 872.34,163.65 873.08,163.02"/>
    </edge>
    <edge id=":2509327417_w0" function="walkingarea">
        <lane id=":2509327417_w0_0" index="0" allow="pedestrian" speed="2.78" length="8.40" width="2.00" shape="1181.86,470.78 1180.49,472.24 1187.59,464.64 1186.22,466.10"/>
    </edge>
    <edge id=":2930530113_0" function="internal">
        <lane id=":2930530113_0_0" index="0" allow="pedestrian delivery bicycle" speed="4.24" length="3.56" shape="809.04,215.51 808.26,214.99 807.32,214.43 806.46,214.14 805.91,214.42"/>
    </edge>
    <edge id=":2930530113_1" function="internal">
        <lane id=":2930530113_1_0" index="0" disallow="tram rail_urban rail rail_electric rail_fast ship container cable_car subway aircraft wheelchair scooter drone" speed="17.59" length="9.13" shape="809.04,215.51 806.77,214.05 805.29,212.90 804.07,211.50 802.55,209.28"/>
    </edge>
    <edge id=":2930530113_2" function="internal">
        <lane id=":2930530113_2_0" index="0" allow="pedestrian delivery bicycle" speed="5.79" length="3.99" shape="803.02,213.07 803.30,212.16 803.32,211.23 803.07,210.27 802.55,209.28"/>
    </edge>
    <edge id=":2930530113_w0" function="walkingarea">
        <lane id=":2930530113_w0_0" index="0" allow="pedestrian" speed="2.78" length="5.33" width="6.40" shape="808.18,216.86 809.90,214.16 807.29,212.45 806.43,211.75 805.68,210.95 804.88,209.89 803.89,208.41 801.21,210.15 801.49,211.22 801.44,211.92 801.25,212.73 800.93,213.66 800.48,214.70 806.28,217.41 806.77,216.75 807.07,216.60 807.41,216.57 807.78,216.65"/>
    </edge>
    <edge id=":3053674662_w0" function="walkingarea">
        <lane id=":3053674662_w0_0" index="0" allow="pedestrian" speed="2.78" length="4.38" width="2.00" shape="838.20,478.96 840.20,478.83 840.29,478.07 840.46,477.87 840.71,477.79 841.04,477.82 841.45,477.98 842.32,476.18 840.97,475.37 840.48,474.94 840.11,474.49 839.87,474.02 839.75,473.53 837.76,473.76"/>
    </edge>
    <edge id=":3100793732_0" function="internal">
        <lane id=":3100793732_0_0" index="0" allow="pedestrian delivery bicycle" speed="5.56" length="11.33" shape="805.83,214.60 804.35,217.13 802.50,219.22 800.28,220.85 797.68,222.04"/>
    </edge>
    <edge id=":3100793732_1" function="internal">
        <lane id=":3100793732_1_0" index="0" allow="pedestrian delivery bicycle" speed="5.56" length="13.01" shape="805.83,214.60 803.90,217.41 801.79,217.99 799.48,216.36 796.98,212.51"/>
    </edge>
    <edge id=":3100793732_2" function="internal">
        <lane id=":3100793732_2_0" index="0" allow="pedestrian delivery bicycle" speed="4.22" length="4.79" shape="799.82,211.03 800.83,212.74 801.69,213.68 802.39,213.85 802.93,213.25"/>
    </edge>
    <edge id=":3100793732_3" function="internal">
        <lane id=":3100793732_3_0" index="0" allow="pedestrian delivery bicycle" speed="5.56" length="13.13" shape="799.82,211.03 801.39,214.98 801.56,218.13 800.32,220.48 797.68,222.04"/>
    </edge>
    <edge id=":3100793732_4" function="internal">
        <lane id=":3100793732_4_0" index="0" allow="pedestrian delivery bicycle" speed="5.56" length="7.46" shape="796.64,219.01 797.85,218.20 798.31,216.84 798.02,214.95 796.98,212.51"/>
    </edge>
    <edge id=":3100793732_5" function="internal">
        <lane id=":3100793732_5_0" index="0" allow="pedestrian delivery bicycle" speed="5.56" length="8.77" shape="796.64,219.01 798.64,218.10 800.36,216.83 801.79,215.21 802.93,213.25"/>
    </edge>
    <edge id=":3100793732_w0" function="walkingarea">
        <lane id=":3100793732_w0_0" index="0" allow="pedestrian" speed="2.78" length="7.43" width="6.40" shape="808.36,212.97 802.57,210.26 801.23,210.29 795.56,213.26 796.50,215.40 796.68,216.19 796.68,216.81 796.49,217.25 796.11,217.50 798.21,223.55"/>
    </edge>
    <edge id=":3217912756_0" function="internal">
        <lane id=":3217912756_0_0" index="0" allow="delivery bicycle" speed="5.70" length="6.69" shape="845.59,345.89 845.19,344.56 844.17,343.65 842.55,343.16 840.31,343.11"/>
    </edge>
    <edge id=":3217912756_1" function="internal">
        <lane id=":3217912756_1_0" index="0" disallow="pedestrian tram rail_urban rail rail_electric rail_fast ship container cable_car subway aircraft wheelchair scooter drone" speed="13.89" length="9.28" shape="845.59,345.89 845.17,336.62"/>
    </edge>
    <edge id=":3217912756_2" function="internal">
        <lane id=":3217912756_2_0" index="0" disallow="pedestrian tram rail_urban rail rail_electric rail_fast ship container cable_car subway aircraft wheelchair scooter drone" speed="13.89" length="9.18" shape="848.37,336.53 848.78,345.70"/>
    </edge>
    <edge id=":3217912756_3" function="internal">
        <lane id=":3217912756_3_0" index="0" allow="delivery bicycle" speed="7.41" length="2.83" shape="848.37,336.53 847.93,339.22 847.87,339.30"/>
    </edge>
    <edge id=":3217912756_6" function="internal">
        <lane id=":3217912756_6_0" index="0" allow="delivery bicycle" speed="7.41" length="8.88" shape="847.87,339.30 846.44,341.21 843.90,342.51 840.31,343.11"/>
    </edge>
    <edge id=":3217912756_4" function="internal">
        <lane id=":3217912756_4_0" index="0" allow="delivery bicycle" speed="5.77" length="6.71" shape="840.11,339.91 842.36,339.59 843.95,338.93 844.89,337.94 845.17,336.62"/>
    </edge>
    <edge id=":3217912756_5" function="internal">
        <lane id=":3217912756_5_0" index="0" allow="delivery bicycle" speed="7.35" length="11.82" shape="840.11,339.91 843.76,340.08 846.42,341.11 848.10,342.98 848.78,345.70"/>
    </edge>
    <edge id=":3217912756_c0" function="crossing" crossingEdges="-315658884#1 315658884#1">
        <lane id=":3217912756_c0_0" index="0" allow="pedestrian" speed="2.78" length="6.40" width="4.00" shape="850.26,343.61 843.87,343.99" outlineShape="850.38,345.60 843.99,345.99 843.89,346.00 843.99,345.99 843.75,342.00 850.14,341.61 850.48,345.60 852.37,345.48 851.97,336.43 849.97,336.48 850.14,341.61"/>
    </edge>
    <edge id=":3217912756_w0" function="walkingarea">
        <lane id=":3217912756_w0_0" index="0" allow="pedestrian" speed="2.78" length="5.31" width="4.00" shape="843.57,336.66 841.57,336.72 840.01,338.32 840.21,341.51 840.41,344.70 841.99,346.11 843.99,345.99 843.75,342.00"/>
    </edge>
    <edge id=":3217912756_w1" function="walkingarea">
        <lane id=":3217912756_w1_0" index="0" allow="pedestrian" speed="2.78" length="6.17" width="4.00" shape="850.14,341.61 850.38,345.60 852.37,345.48 851.97,336.43 849.97,336.48"/>
    </edge>
    <edge id=":3217912757_0" function="internal">
        <lane id=":3217912757_0_0" index="0" allow="delivery bicycle" speed="6.74" length="7.78" shape="843.79,287.62 843.36,286.57 842.15,285.60 840.15,284.71 837.35,283.90"/>
    </edge>
    <edge id=":3217912757_1" function="internal">
        <lane id=":3217912757_1_0" index="0" disallow="pedestrian tram rail_urban rail rail_electric rail_fast ship container cable_car subway aircraft wheelchair scooter drone" speed="13.89" length="9.65" shape="843.79,287.62 843.49,277.97"/>
    </edge>
    <edge id=":3217912757_2" function="internal">
        <lane id=":3217912757_2_0" index="0" disallow="pedestrian tram rail_urban rail rail_electric rail_fast ship container cable_car subway aircraft wheelchair scooter drone" speed="13.89" length="9.66" shape="846.69,277.87 846.99,287.52"/>
    </edge>
    <edge id=":3217912757_3" function="internal">
        <lane id=":3217912757_3_0" index="0" allow="delivery bicycle" speed="7.20" length="3.54" shape="846.69,277.87 846.20,281.38"/>
    </edge>
    <edge id=":3217912757_6" function="internal">
        <lane id=":3217912757_6_0" index="0" allow="delivery bicycle" speed="7.20" length="10.05" shape="846.20,281.38 844.49,283.55 841.54,284.39 837.35,283.90"/>
    </edge>
    <edge id=":3217912757_4" function="internal">
        <lane id=":3217912757_4_0" index="0" allow="delivery bicycle" speed="5.48" length="7.36" shape="838.10,280.79 840.51,281.11 842.21,280.75 843.20,279.70 843.49,277.97"/>
    </edge>
    <edge id=":3217912757_5" function="internal">
        <lane id=":3217912757_5_0" index="0" allow="delivery bicycle" speed="8.20" length="11.91" shape="838.10,280.79 841.94,282.00 844.70,283.53 846.38,285.37 846.99,287.52"/>
    </edge>