<?xml version="1.0" encoding="UTF-8"?>

<!-- generated on 2026-04-15T00:12:33.537838+09:00 by Eclipse SUMO netconvert 1.26.0
<netconvertConfiguration xmlns:xsi="http://www.w3.org/2001/XMLSchema-instance" xsi:noNamespaceSchemaLocation="http://sumo.dlr.de/xsd/netconvertConfiguration.xsd">

    <input>
        <osm-files value="/Users/junlee/Desktop/2026-1/js/result/2026-04-15_00-06-49/sumo_nets/cw_9628/map.osm"/>
    </input>

    <output>
        <output-file value="/Users/junlee/Desktop/2026-1/js/result/2026-04-15_00-06-49/sumo_nets/cw_9628/network.net.xml"/>
    </output>

    <projection>
        <proj.utm value="true"/>
    </projection>

    <processing>
        <geometry.remove value="true"/>
        <roundabouts.guess value="true"/>
    </processing>

    <tls_building>
        <tls.guess value="true"/>
        <tls.guess-signals value="true"/>
    </tls_building>

    <ramp_guessing>
        <ramps.guess value="true"/>
    </ramp_guessing>

    <edge_removal>
        <keep-edges.by-vclass value="passenger,pedestrian"/>
    </edge_removal>

    <junctions>
        <no-turnarounds value="true"/>
        <junctions.join value="true"/>
    </junctions>

    <pedestrian>
        <sidewalks.guess value="true"/>
        <sidewalks.guess.max-speed value="13.89"/>
        <crossings.guess value="true"/>
    </pedestrian>

    <report>
        <verbose value="true"/>
    </report>

</netconvertConfiguration>
-->

<net version="1.20" junctionCornerDetail="5" walkingareas="true" limitTurnSpeed="5.50" xmlns:xsi="http://www.w3.org/2001/XMLSchema-instance" xsi:noNamespaceSchemaLocation="http://sumo.dlr.de/xsd/net_file.xsd">

    <location netOffset="-319530.43,-4157469.63" convBoundary="0.00,0.00,1081.41,1243.65" origBoundary="126.957059,37.546684,126.969109,37.557841" projParameter="+proj=utm +zone=52 +ellps=WGS84 +datum=WGS84 +units=m +no_defs"/>

    <type id="highway.footway" priority="1" numLanes="1" speed="2.78" allow="pedestrian" oneway="1" width="2.00"/>
    <type id="highway.primary" priority="12" numLanes="2" speed="27.78" disallow="tram rail_urban rail rail_electric rail_fast ship container cable_car subway aircraft wheelchair scooter drone" oneway="0"/>
    <type id="highway.primary_link" priority="7" numLanes="1" speed="22.22" disallow="tram rail_urban rail rail_electric rail_fast ship container cable_car subway aircraft wheelchair scooter drone" oneway="0"/>
    <type id="highway.residential" priority="3" numLanes="1" speed="13.89" disallow="tram rail_urban rail rail_electric rail_fast ship container cable_car subway aircraft wheelchair scooter drone" oneway="0"/>
    <type id="highway.service" priority="1" numLanes="1" speed="5.56" allow="pedestrian delivery bicycle" oneway="0"/>
    <type id="highway.steps" priority="1" numLanes="1" speed="1.39" allow="pedestrian" oneway="1" width="2.00"/>
    <type id="highway.tertiary" priority="10" numLanes="1" speed="22.22" disallow="tram rail_urban rail rail_electric rail_fast ship container cable_car subway aircraft wheelchair scooter drone" oneway="0"/>

    <edge id=":10156195524_w0" function="walkingarea">
        <lane id=":10156195524_w0_0" index="0" allow="pedestrian" speed="2.78" length="0.10" width="3.20" shape="122.96,115.03 127.46,110.49"/>
    </edge>
    <edge id=":10156195544_0" function="internal">
        <lane id=":10156195544_0_0" index="0" disallow="tram rail_urban rail rail_electric rail_fast ship container cable_car subway aircraft wheelchair scooter drone" speed="27.78" length="5.47" shape="482.44,525.44 483.41,526.66 484.10,527.47 484.84,528.23 485.97,529.30"/>
        <lane id=":10156195544_0_1" index="1" disallow="tram rail_urban rail rail_electric rail_fast ship container cable_car subway aircraft wheelchair scooter drone" speed="27.78" length="5.47" shape="479.93,527.43 480.99,528.75 481.74,529.64 482.55,530.47 483.78,531.63"/>
    </edge>
    <edge id=":10156195544_w0" function="walkingarea">
        <lane id=":10156195544_w0_0" index="0" allow="pedestrian" speed="2.78" length="5.69" width="3.20" shape="482.68,532.80 487.07,528.14 486.58,527.45 486.53,527.10 486.59,526.75 486.78,526.40 487.09,526.05 485.71,524.60 485.01,525.04 484.67,525.08 484.33,524.99 484.01,524.78 483.70,524.45 478.68,528.42 479.27,529.45 479.37,529.91 479.33,530.34 479.16,530.74 478.86,531.11 480.24,532.56 480.99,532.13 481.39,532.10 481.81,532.21 482.24,532.44"/>
    </edge>
    <edge id=":10156195555_0" function="internal">
        <lane id=":10156195555_0_0" index="0" disallow="tram rail_urban rail rail_electric rail_fast ship container cable_car subway aircraft wheelchair scooter drone" speed="27.78" length="5.66" shape="478.21,537.13 473.95,533.47"/>
        <lane id=":10156195555_0_1" index="1" disallow="tram rail_urban rail rail_electric rail_fast ship container cable_car subway aircraft wheelchair scooter drone" speed="27.78" length="5.66" shape="480.33,534.73 476.00,531.02"/>
    </edge>
    <edge id=":10156195555_w0" function="walkingarea">
        <lane id=":10156195555_w0_0" index="0" allow="pedestrian" speed="2.78" length="5.90" width="3.20" shape="477.16,538.33 481.39,533.53 480.88,532.87 480.81,532.53 480.87,532.19 481.05,531.85 481.35,531.51 479.97,530.06 479.10,530.55 478.62,530.57 478.11,530.46 477.58,530.20 477.02,529.79 472.92,534.70 473.44,535.35 473.51,535.68 473.46,536.02 473.28,536.36 472.98,536.70 474.36,538.15 475.22,537.64 475.68,537.60 476.16,537.71 476.65,537.95"/>
    </edge>
    <edge id=":10156195556_0" function="internal">
        <lane id=":10156195556_0_0" index="0" disallow="tram rail_urban rail rail_electric rail_fast ship container cable_car subway aircraft wheelchair scooter drone" speed="27.78" length="6.49" shape="471.52,512.08 472.97,513.46 473.87,514.49 474.70,515.59 475.91,517.19"/>
        <lane id=":10156195556_0_1" index="1" disallow="tram rail_urban rail rail_electric rail_fast ship container cable_car subway aircraft wheelchair scooter drone" speed="27.78" length="6.49" shape="469.37,514.45 470.70,515.73 471.53,516.68 472.29,517.70 473.40,519.17"/>
    </edge>
    <edge id=":10156195556_2" function="internal">
        <lane id=":10156195556_2_0" index="0" disallow="tram rail_urban rail rail_electric rail_fast ship container cable_car subway aircraft wheelchair scooter drone" speed="7.03" length="4.88" shape="467.23,516.83 468.18,517.83 468.85,518.87 469.25,519.95 469.36,521.06"/>
    </edge>
    <edge id=":10156195556_w0" function="walkingarea">
        <lane id=":10156195556_w0_0" index="0" allow="pedestrian" speed="2.78" length="7.86" width="3.20" shape="472.15,520.16 477.17,516.20 475.60,514.12 475.04,513.39 474.45,512.70 473.68,511.91 472.59,510.89 466.15,518.01 467.42,519.36 467.78,519.94 467.96,520.45 467.95,520.89 467.71,521.32 470.95,521.40 471.11,520.08 471.28,519.76 471.51,519.66 471.80,519.80"/>
    </edge>
    <edge id=":10156195567_0" function="internal">
        <lane id=":10156195567_0_0" index="0" disallow="pedestrian tram rail_urban rail rail_electric rail_fast ship container cable_car subway aircraft wheelchair scooter drone" speed="13.89" length="4.38" shape="396.87,392.82 396.37,394.02 396.04,394.85 395.74,395.68 395.34,396.92"/>
    </edge>
    <edge id=":10156195567_1" function="internal">
        <lane id=":10156195567_1_0" index="0" disallow="pedestrian tram rail_urban rail rail_electric rail_fast ship container cable_car subway aircraft wheelchair scooter drone" speed="13.89" length="4.67" shape="392.29,395.96 392.71,394.64 393.03,393.75 393.38,392.87 393.92,391.59"/>
    </edge>
    <edge id=":10156195567_c0" function="crossing" crossingEdges="377373579#1 -377373579#1">
        <lane id=":10156195567_c0_0" index="0" allow="pedestrian" speed="2.78" length="6.40" width="4.00" shape="391.54,393.13 397.45,395.60" outlineShape="392.22,391.24 398.31,393.79 398.61,397.94 398.78,398.00 400.19,394.21 398.35,393.44 398.22,393.75 396.68,397.44 390.77,394.97 390.91,395.03 391.07,394.51 391.31,393.79 391.53,393.20 391.76,392.62 392.05,391.92"/>
    </edge>
    <edge id=":10156195567_w0" function="walkingarea">
        <lane id=":10156195567_w0_0" index="0" allow="pedestrian" speed="2.78" length="2.94" width="4.00" shape="396.87,397.40 398.78,398.00 400.19,394.21 398.35,393.44 398.22,393.75 398.00,394.27 397.74,394.89 397.54,395.40 397.35,395.91 397.14,396.54"/>
    </edge>
    <edge id=":10156195567_w1" function="walkingarea">
        <lane id=":10156195567_w1_0" index="0" allow="pedestrian" speed="2.78" length="3.06" width="4.00" shape="392.32,391.28 392.44,390.97 390.60,390.20 389.64,391.42 388.82,393.24 388.85,394.89 390.76,395.48 391.07,394.51 391.31,393.79 391.53,393.20 391.76,392.62 392.05,391.92"/>
    </edge>
    <edge id=":10156195571_w0" function="walkingarea">
        <lane id=":10156195571_w0_0" index="0" allow="pedestrian" speed="2.78" length="4.08" width="2.00" shape="481.51,518.68 482.84,517.19 482.35,516.53 482.29,516.19 482.35,515.86 482.53,515.52 482.85,515.19 481.51,513.70 480.68,514.23 480.27,514.31 479.88,514.27 479.49,514.12 479.12,513.84 477.78,515.33"/>
    </edge>
    <edge id=":10156195577_w0" function="walkingarea">
        <lane id=":10156195577_w0_0" index="0" allow="pedestrian" speed="2.78" length="3.50" width="2.00" shape="487.09,521.01 485.75,522.50 486.25,523.17 486.32,523.51 486.26,523.85 486.08,524.19 485.78,524.53 487.16,525.98 488.33,524.31 488.47,523.48 488.31,522.65 487.85,521.83"/>
    </edge>
    <edge id=":10185125521_0" function="internal">
        <lane id=":10185125521_0_0" index="0" disallow="pedestrian tram rail_urban rail rail_electric rail_fast ship container cable_car subway aircraft wheelchair scooter drone" speed="5.89" length="7.66" shape="599.71,634.06 598.63,635.39 598.43,636.94 599.10,638.70 600.65,640.67"/>
    </edge>
    <edge id=":10185125521_1" function="internal">
        <lane id=":10185125521_1_0" index="0" disallow="pedestrian tram rail_urban rail rail_electric rail_fast ship container cable_car subway aircraft wheelchair scooter drone" speed="6.40" length="8.02" shape="590.59,630.35 592.48,631.87 594.29,632.59 596.03,632.49 597.70,631.57"/>
    </edge>
    <edge id=":10185125521_2" function="internal">
        <lane id=":10185125521_2_0" index="0" disallow="tram rail_urban rail rail_electric rail_fast ship container cable_car subway aircraft wheelchair scooter drone" speed="27.78" length="14.39" shape="590.59,630.35 600.65,640.67"/>
        <lane id=":10185125521_2_1" index="1" disallow="tram rail_urban rail rail_electric rail_fast ship container cable_car subway aircraft wheelchair scooter drone" speed="27.78" length="14.39" shape="588.32,632.60 598.34,642.88"/>
    </edge>
    <edge id=":10185125521_w0" function="walkingarea">
        <lane id=":10185125521_w0_0" index="0" allow="pedestrian" speed="2.78" length="9.53" width="3.20" shape="596.69,630.33 595.43,628.78 591.73,629.22 589.46,631.47 587.19,633.73 597.19,643.99 599.50,641.77 601.81,639.56 601.98,636.86 600.72,635.30"/>
    </edge>
    <edge id=":10185125524_0" function="internal">
        <lane id=":10185125524_0_0" index="0" disallow="pedestrian tram rail_urban rail rail_electric rail_fast ship container cable_car subway aircraft wheelchair scooter drone" speed="6.15" length="7.78" shape="681.94,721.57 680.96,723.06 680.81,724.69 681.49,726.48 682.99,728.41"/>
    </edge>
    <edge id=":10185125524_1" function="internal">
        <lane id=":10185125524_1_0" index="0" disallow="pedestrian tram rail_urban rail rail_electric rail_fast ship container cable_car subway aircraft wheelchair scooter drone" speed="5.92" length="7.61" shape="673.17,717.80 675.01,719.49 676.70,720.30 678.25,720.25 679.66,719.32"/>
    </edge>
    <edge id=":10185125524_2" function="internal">
        <lane id=":10185125524_2_0" index="0" disallow="tram rail_urban rail rail_electric rail_fast ship container cable_car subway aircraft wheelchair scooter drone" speed="27.78" length="14.50" shape="673.17,717.80 682.99,728.41"/>
        <lane id=":10185125524_2_1" index="1" disallow="tram rail_urban rail rail_electric rail_fast ship container cable_car subway aircraft wheelchair scooter drone" speed="27.78" length="14.50" shape="670.79,719.94 680.67,730.62"/>
    </edge>
    <edge id=":10185125524_w0" function="walkingarea">
        <lane id=":10185125524_w0_0" index="0" allow="pedestrian" speed="2.78" length="9.44" width="3.20" shape="678.53,718.20 677.10,716.79 674.36,716.73 671.98,718.87 669.60,721.01 679.51,731.72 681.83,729.52 684.15,727.31 684.50,724.10 683.08,722.70"/>
    </edge>
    <edge id=":10185125540_0" function="internal">
        <lane id=":10185125540_0_0" index="0" disallow="tram rail_urban rail rail_electric rail_fast ship container cable_car subway aircraft wheelchair scooter drone" speed="27.78" length="0.10" shape="1050.26,933.21 1050.17,933.21"/>
        <lane id=":10185125540_0_1" index="1" disallow="tram rail_urban rail rail_electric rail_fast ship container cable_car subway aircraft wheelchair scooter drone" speed="27.78" length="0.10" shape="1050.26,936.41 1050.35,936.41"/>
    </edge>
    <edge id=":10185125540_w0" function="walkingarea">
        <lane id=":10185125540_w0_0" index="0" allow="pedestrian" speed="2.78" length="0.10" width="3.20" shape="1050.53,938.00 1050.17,931.61 1050.17,938.01"/>
    </edge>
    <edge id=":10185125581_w0" function="walkingarea">
        <lane id=":10185125581_w0_0" index="0" allow="pedestrian" speed="2.78" length="0.10" width="3.20" shape="1065.07,939.72 1065.27,946.12"/>
    </edge>
    <edge id=":1110155154#4-AddedOnRampNode_0" function="internal">
        <lane id=":1110155154#4-AddedOnRampNode_0_0" index="0" disallow="tram rail_urban rail rail_electric rail_fast ship container cable_car subway aircraft wheelchair scooter drone" speed="27.78" length="8.00" shape="361.73,430.76 355.97,425.20"/>
        <lane id=":1110155154#4-AddedOnRampNode_0_1" index="1" disallow="tram rail_urban rail rail_electric rail_fast ship container cable_car subway aircraft wheelchair scooter drone" speed="27.78" length="8.00" shape="363.95,428.45 358.19,422.90"/>
    </edge>
    <edge id=":1110155154#4-AddedOnRampNode_w0" function="walkingarea">
        <lane id=":1110155154#4-AddedOnRampNode_w0_0" index="0" allow="pedestrian" speed="2.78" length="8.62" width="3.20" shape="358.39,434.21 365.06,427.30 359.30,421.75 354.86,426.35 356.46,429.06 356.63,430.28 356.79,431.51 357.27,432.80"/>
    </edge>
    <edge id=":11139376903_0" function="internal">
        <lane id=":11139376903_0_0" index="0" disallow="tram rail_urban rail rail_electric rail_fast ship container cable_car subway aircraft wheelchair scooter drone" speed="27.78" length="0.30" shape="1050.35,944.98 1050.05,944.99"/>
        <lane id=":11139376903_0_1" index="1" disallow="tram rail_urban rail rail_electric rail_fast ship container cable_car subway aircraft wheelchair scooter drone" speed="27.78" length="0.30" shape="1050.25,941.79 1049.95,941.80"/>
    </edge>
    <edge id=":11139376903_w0" function="walkingarea">
        <lane id=":11139376903_w0_0" index="0" allow="pedestrian" speed="2.78" length="0.30" width="3.20" shape="1050.40,946.58 1050.20,940.19 1049.90,940.20 1050.10,946.59"/>
    </edge>
    <edge id=":13084296804_0" function="internal">
        <lane id=":13084296804_0_0" index="0" allow="delivery bicycle" speed="5.91" length="6.80" shape="366.14,840.53 363.80,840.49 362.05,840.86 360.91,841.63 360.36,842.80"/>
    </edge>
    <edge id=":13084296804_1" function="internal">
        <lane id=":13084296804_1_0" index="0" allow="delivery bicycle" speed="7.24" length="12.17" shape="366.14,840.53 362.50,839.76 360.08,838.25 358.86,835.98 358.85,832.97"/>
    </edge>
    <edge id=":13084296804_2" function="internal">
        <lane id=":13084296804_2_0" index="0" allow="delivery bicycle" speed="5.42" length="6.33" shape="362.01,833.52 362.03,835.02 362.70,836.15 364.02,836.91 365.98,837.30"/>
    </edge>
    <edge id=":13084296804_3" function="internal">
        <lane id=":13084296804_3_0" index="0" disallow="pedestrian tram rail_urban rail rail_electric rail_fast ship container cable_car subway aircraft wheelchair scooter drone" speed="13.89" length="9.42" shape="362.01,833.52 360.36,842.80"/>
    </edge>
    <edge id=":13084296804_4" function="internal">
        <lane id=":13084296804_4_0" index="0" disallow="pedestrian tram rail_urban rail rail_electric rail_fast ship container cable_car subway aircraft wheelchair scooter drone" speed="13.89" length="9.43" shape="357.21,842.25 358.85,832.97"/>
    </edge>
    <edge id=":13084296804_5" function="internal">
        <lane id=":13084296804_5_0" index="0" allow="delivery bicycle" speed="7.40" length="2.83" shape="357.21,842.25 358.14,839.82 358.31,839.66"/>
    </edge>
    <edge id=":13084296804_6" function="internal">
        <lane id=":13084296804_6_0" index="0" allow="delivery bicycle" speed="7.40" length="8.38" shape="358.31,839.66 359.90,838.18 362.52,837.34 365.98,837.30"/>
    </edge>
    <edge id=":13084296804_c0" function="crossing" crossingEdges="224260206#1 -224260206#1">
        <lane id=":13084296804_c0_0" index="0" allow="pedestrian" speed="2.78" length="6.40" width="4.00" shape="356.93,834.66 363.23,835.77" outlineShape="357.28,832.69 363.58,833.80 363.68,833.82 363.58,833.80 362.88,837.74 356.58,836.63"/>
    </edge>
    <edge id=":13084296804_w0" function="walkingarea">
        <lane id=":13084296804_w0_0" index="0" allow="pedestrian" speed="2.78" length="5.24" width="4.00" shape="361.94,843.08 363.91,843.43 366.00,842.12 366.29,838.93 365.84,838.89 366.13,835.70 365.55,834.15 363.58,833.80 362.88,837.74"/>
    </edge>
    <edge id=":13084296804_w1" function="walkingarea">
        <lane id=":13084296804_w1_0" index="0" allow="pedestrian" speed="2.78" length="6.39" width="4.00" shape="356.58,836.63 357.28,832.69 355.31,832.34 353.67,841.62 355.64,841.97"/>
    </edge>
    <edge id=":13084296813_w0" function="walkingarea">
        <lane id=":13084296813_w0_0" index="0" allow="pedestrian" speed="2.78" length="0.21" width="2.00" shape="401.04,664.34 401.76,662.48 401.61,662.42 401.56,662.40 401.51,662.39 401.44,662.38 401.04,664.34"/>
    </edge>
    <edge id=":13084296814_0" function="internal">
        <lane id=":13084296814_0_0" index="0" disallow="pedestrian tram rail_urban rail rail_electric rail_fast ship container cable_car subway aircraft wheelchair scooter drone" speed="13.89" length="5.00" shape="414.42,665.80 412.58,670.46"/>
    </edge>
    <edge id=":13084296814_1" function="internal">
        <lane id=":13084296814_1_0" index="0" disallow="pedestrian tram rail_urban rail rail_electric rail_fast ship container cable_car subway aircraft wheelchair scooter drone" speed="13.89" length="5.00" shape="409.60,669.28 411.44,664.63"/>
    </edge>
    <edge id=":13084296814_c0" function="crossing" crossingEdges="224260206#5 -224260206#5">
        <lane id=":13084296814_c0_0" index="0" allow="pedestrian" speed="2.78" length="6.40" width="4.00" shape="409.03,666.37 414.98,668.72" outlineShape="409.76,664.51 415.72,666.86 414.24,670.58 408.29,668.23 409.76,664.51 409.95,664.05 408.09,663.31 406.12,664.16 405.40,666.03 406.25,667.96 408.11,668.70 408.29,668.23"/>
    </edge>
    <edge id=":13084296814_w0" function="walkingarea">
        <lane id=":13084296814_w0_0" index="0" allow="pedestrian" speed="2.78" length="3.47" width="4.00" shape="414.07,671.05 415.93,671.78 417.77,667.13 415.91,666.39 415.72,666.86 414.24,670.58"/>
    </edge>
    <edge id=":13084296814_w1" function="walkingarea">
        <lane id=":13084296814_w1_0" index="0" allow="pedestrian" speed="2.78" length="3.50" width="4.00" shape="408.29,668.23 409.76,664.51 409.95,664.05 408.09,663.31 406.12,664.16 405.40,666.03 406.25,667.96 408.11,668.70"/>
    </edge>
    <edge id=":13084296817_0" function="internal">
        <lane id=":13084296817_0_0" index="0" disallow="pedestrian tram rail_urban rail rail_electric rail_fast ship container cable_car subway aircraft wheelchair scooter drone" speed="13.89" length="5.01" shape="402.81,695.23 400.96,699.89"/>
    </edge>
    <edge id=":13084296817_1" function="internal">
        <lane id=":13084296817_1_0" index="0" disallow="pedestrian tram rail_urban rail rail_electric rail_fast ship container cable_car subway aircraft wheelchair scooter drone" speed="13.89" length="5.01" shape="397.99,698.71 399.83,694.05"/>
    </edge>
    <edge id=":13084296817_c0" function="crossing" crossingEdges="224260206#4 -224260206#4">
        <lane id=":13084296817_c0_0" index="0" allow="pedestrian" speed="2.78" length="6.40" width="4.00" shape="397.42,695.79 403.37,698.14" outlineShape="398.06,693.90 404.20,696.32 402.64,700.00 396.69,697.65 398.15,693.93 398.34,693.46 396.48,692.73 394.29,693.66 393.75,695.59 394.64,697.39 396.50,698.12 396.69,697.65"/>
    </edge>
    <edge id=":13084296817_w0" function="walkingarea">
        <lane id=":13084296817_w0_0" index="0" allow="pedestrian" speed="2.78" length="3.47" width="4.00" shape="402.45,700.48 404.31,701.21 406.15,696.55 404.29,695.81 404.11,696.28 402.64,700.00"/>
    </edge>
    <edge id=":13084296817_w1" function="walkingarea">
        <lane id=":13084296817_w1_0" index="0" allow="pedestrian" speed="2.78" length="3.54" width="4.00" shape="396.69,697.65 398.15,693.93 398.34,693.46 396.48,692.73 394.29,693.66 393.75,695.59 394.64,697.39 396.50,698.12"/>
    </edge>
    <edge id=":13084296821_0" function="internal">
        <lane id=":13084296821_0_0" index="0" disallow="pedestrian tram rail_urban rail rail_electric rail_fast ship container cable_car subway aircraft wheelchair scooter drone" speed="13.89" length="5.20" shape="342.96,700.21 339.41,704.01"/>
    </edge>
    <edge id=":13084296821_1" function="internal">
        <lane id=":13084296821_1_0" index="0" disallow="pedestrian tram rail_urban rail rail_electric rail_fast ship container cable_car subway aircraft wheelchair scooter drone" speed="13.89" length="5.20" shape="337.07,701.83 340.62,698.03"/>
    </edge>
    <edge id=":13084296821_c0" function="crossing" crossingEdges="464240154#3 -464240154#3">
        <lane id=":13084296821_c0_0" index="0" allow="pedestrian" speed="2.78" length="6.40" width="4.00" shape="337.67,698.84 342.35,703.21" outlineShape="339.04,697.37 343.72,701.74 340.99,704.67 336.31,700.30 339.04,697.37 339.45,696.94 337.99,695.57 334.44,699.37 335.90,700.73 336.31,700.30"/>
    </edge>
    <edge id=":13084296821_w0" function="walkingarea">
        <lane id=":13084296821_w0_0" index="0" allow="pedestrian" speed="2.78" length="3.73" width="4.00" shape="340.57,705.11 342.03,706.48 345.37,706.14 345.99,704.24 345.59,702.67 344.12,701.31 343.72,701.74 340.99,704.67"/>
    </edge>
    <edge id=":13084296821_w1" function="walkingarea">
        <lane id=":13084296821_w1_0" index="0" allow="pedestrian" speed="2.78" length="3.59" width="4.00" shape="336.31,700.30 339.04,697.37 339.45,696.94 337.99,695.57 334.44,699.37 335.90,700.73"/>
    </edge>
    <edge id=":13121546863_w0" function="walkingarea">
        <lane id=":13121546863_w0_0" index="0" allow="pedestrian" speed="2.78" length="3.20" width="6.40" shape="498.33,777.97 498.96,781.11 497.70,774.83 498.33,777.97"/>
    </edge>
    <edge id=":13121546901_0" function="internal">
        <lane id=":13121546901_0_0" index="0" allow="pedestrian delivery bicycle" speed="5.56" length="12.63" shape="430.14,709.48 426.58,708.68 423.56,708.96 421.08,710.31 419.14,712.75"/>
    </edge>
    <edge id=":13121546901_1" function="internal">
        <lane id=":13121546901_1_0" index="0" allow="pedestrian delivery bicycle" speed="5.56" length="14.60" shape="430.14,709.48 425.52,707.45 422.49,705.16 421.06,702.61 421.23,699.79"/>
    </edge>
    <edge id=":13121546901_2" function="internal">
        <lane id=":13121546901_2_0" index="0" allow="pedestrian delivery bicycle" speed="5.56" length="6.47" shape="424.27,700.79 424.14,702.16 424.69,703.37 425.94,704.42 427.87,705.30"/>
    </edge>
    <edge id=":13121546901_3" function="internal">
        <lane id=":13121546901_3_0" index="0" allow="pedestrian delivery bicycle" speed="5.56" length="13.04" shape="424.27,700.79 423.16,704.05 422.04,706.91 420.75,709.71 419.14,712.75"/>
    </edge>
    <edge id=":13121546901_4" function="internal">
        <lane id=":13121546901_4_0" index="0" allow="pedestrian delivery bicycle" speed="5.56" length="11.40" shape="416.85,710.28 418.35,707.47 419.37,705.18 420.23,702.82 421.23,699.79"/>
    </edge>
    <edge id=":13121546901_5" function="internal">
        <lane id=":13121546901_5_0" index="0" allow="pedestrian delivery bicycle" speed="5.56" length="13.31" shape="416.85,710.28 419.10,707.20 421.68,705.34 424.61,704.71 427.87,705.30"/>
    </edge>
    <edge id=":13121546901_w0" function="walkingarea">
        <lane id=":13121546901_w0_0" index="0" allow="pedestrian" speed="2.78" length="9.82" width="6.40" shape="431.53,712.05 426.74,703.21 426.00,702.77 425.79,702.48 425.69,702.13 425.69,701.73 425.79,701.29 419.71,699.29 419.02,701.44 418.51,703.05 418.05,704.35 417.51,705.62 416.76,707.12 415.72,709.07 420.28,713.98 423.06,709.53 425.48,706.73 427.53,705.58 429.23,706.08 430.56,708.24"/>
    </edge>
    <edge id=":13356995990_w0" function="walkingarea">
        <lane id=":13356995990_w0_0" index="0" allow="pedestrian" speed="2.78" length="1.09" width="2.00" shape="389.68,393.63 390.50,391.80 390.42,391.77 390.40,391.76 390.37,391.75 390.33,391.73 389.68,393.63"/>
    </edge>
    <edge id=":13648893021_0" function="internal">
        <lane id=":13648893021_0_0" index="0" disallow="tram rail_urban rail rail_electric rail_fast ship container cable_car subway aircraft wheelchair scooter drone" speed="25.00" length="3.10" shape="454.57,520.80 452.30,518.70"/>
    </edge>
    <edge id=":13648893021_1" function="internal">
        <lane id=":13648893021_1_0" index="0" disallow="tram rail_urban rail rail_electric rail_fast ship container cable_car subway aircraft wheelchair scooter drone" speed="27.78" length="3.01" shape="456.73,518.44 454.49,516.38"/>
        <lane id=":13648893021_1_1" index="1" disallow="tram rail_urban rail rail_electric rail_fast ship container cable_car subway aircraft wheelchair scooter drone" speed="27.78" length="3.01" shape="458.88,516.07 456.69,514.06"/>
    </edge>
    <edge id=":13648893021_w0" function="walkingarea">
        <lane id=":13648893021_w0_0" index="0" allow="pedestrian" speed="2.78" length="3.57" width="3.20" shape="453.50,521.99 459.96,514.89 457.79,512.89 451.21,519.86"/>
    </edge>
    <edge id=":2322074424_w0" function="walkingarea">
        <lane id=":2322074424_w0_0" index="0" allow="pedestrian" speed="2.78" length="0.10" width="3.20" shape="96.82,104.29 101.36,99.77"/>
    </edge>
    <edge id=":2330782495_0" function="internal">
        <lane id=":2330782495_0_0" index="0" disallow="tram rail_urban rail rail_electric rail_fast ship container cable_car subway aircraft wheelchair scooter drone" speed="27.78" length="3.18" shape="433.58,496.99 431.26,494.83"/>
        <lane id=":2330782495_0_1" index="1" disallow="tram rail_urban rail rail_electric rail_fast ship container cable_car subway aircraft wheelchair scooter drone" speed="27.78" length="3.18" shape="435.76,494.65 433.44,492.49"/>
    </edge>
    <edge id=":2330782495_2" function="internal">
        <lane id=":2330782495_2_0" index="0" disallow="tram rail_urban rail rail_electric rail_fast ship container cable_car subway aircraft wheelchair scooter drone" speed="25.00" length="3.19" shape="431.47,499.27 429.07,497.17"/>
    </edge>
    <edge id=":2330782495_w0" function="walkingarea">
        <lane id=":2330782495_w0_0" index="0" allow="pedestrian" speed="2.78" length="3.60" width="3.20" shape="430.38,500.44 436.85,493.48 434.53,491.32 427.98,498.34"/>
    </edge>
    <edge id=":2330782529_w0" function="walkingarea">
        <lane id=":2330782529_w0_0" index="0" allow="pedestrian" speed="2.78" length="3.20" width="6.40" shape="-0.00,176.90 2.55,174.97 -2.55,178.83 0.00,176.90"/>
    </edge>
    <edge id=":2330782551_w0" function="walkingarea">
        <lane id=":2330782551_w0_0" index="0" allow="pedestrian" speed="2.78" length="8.40" width="2.00" shape="322.38,1245.38 320.70,1246.47 329.44,1240.83 327.76,1241.92"/>
    </edge>
    <edge id=":2330782561_0" function="internal">
        <lane id=":2330782561_0_0" index="0" allow="delivery bicycle" speed="9.72" length="13.83" shape="444.62,631.39 441.13,631.03 437.95,630.32 434.83,630.42 431.47,632.49"/>
    </edge>
    <edge id=":2330782561_1" function="internal">
        <lane id=":2330782561_1_0" index="0" allow="delivery bicycle" speed="7.57" length="20.94" shape="444.62,631.39 436.81,631.19 432.82,629.56 432.64,626.51 436.27,622.04"/>
    </edge>
    <edge id=":2330782561_2" function="internal">
        <lane id=":2330782561_2_0" index="0" allow="delivery bicycle" speed="5.49" length="10.20" shape="439.10,623.78 437.37,625.92 437.49,627.38 439.48,628.16 443.32,628.26"/>
    </edge>
    <edge id=":2330782561_3" function="internal">
        <lane id=":2330782561_3_0" index="0" disallow="pedestrian tram rail_urban rail rail_electric rail_fast ship container cable_car subway aircraft wheelchair scooter drone" speed="13.89" length="11.59" shape="439.10,623.78 436.71,626.24 435.26,628.11 433.83,629.99 431.47,632.49"/>
    </edge>
    <edge id=":2330782561_4" function="internal">
        <lane id=":2330782561_4_0" index="0" disallow="pedestrian tram rail_urban rail rail_electric rail_fast ship container cable_car subway aircraft wheelchair scooter drone" speed="13.89" length="10.77" shape="429.25,630.18 431.43,627.85 432.74,626.09 434.06,624.34 436.27,622.04"/>
    </edge>
    <edge id=":2330782561_5" function="internal">
        <lane id=":2330782561_5_0" index="0" allow="delivery bicycle" speed="9.72" length="2.98" shape="429.25,630.18 431.76,628.57"/>
    </edge>
    <edge id=":2330782561_6" function="internal">