<?xml version='1.0' encoding='utf-8'?>
<configuration>
  <input>
    <net-file value="/Users/junlee/Desktop/2026-1/js/result/veh_sensitivity_short_cw3_20260417_143049/peak_x1p0_cw3_seed3_20min/sumo_nets/cw_71666/network.net.xml" />
    <route-files value="/Users/junlee/Desktop/2026-1/js/result/veh_sensitivity_short_cw3_20260417_143049/peak_x1p0_cw3_seed3_20min/sumo_nets/cw_71666/routes_seed44.rou.xml,/Users/junlee/Desktop/2026-1/js/result/veh_sensitivity_short_cw3_20260417_143049/peak_x1p0_cw3_seed3_20min/sumo_nets/cw_71666/peds_seed44.rou.xml" />
  </input>
  <time>
    <begin value="0" />
    <end value="1500" />
    <step-length value="1.0" />
  </time>
  <processing>
    <time-to-teleport value="300" />
    <pedestrian.model value="striping" />
  </processing>
  <report>
    <no-step-log value="true" />
    <duration-log.disable value="true" />
  </report>
</configuration>