<?xml version='1.0' encoding='utf-8'?>
<routes>
  <vType id="adult" vClass="pedestrian" minGap="0.25" width="0.5" length="0.25" maxSpeed="1.5" speedDev="0.1" />
  <vType id="elderly" vClass="pedestrian" minGap="0.25" width="0.5" length="0.25" maxSpeed="1.13" speedDev="0.15" color="255,0,0" />
  <person id="ped_0" depart="4.91" type="elderly">
    <walk from="420331825#4" to="-381452132" />
  </person>
  <person id="ped_1" depart="7.56" type="adult">
    <walk from="420331825#4" to="-381452132" />
  </person>
  <person id="ped_2" depart="7.93" type="adult">
    <walk from="420331825#4" to="-381452132" />
  </person>
  <person id="ped_3" depart="9.16" type="adult">
    <walk from="420331825#4" to="-381452132" />
  </person>
  <person id="ped_4" depart="10.35" type="adult">
    <walk from="420331825#4" to="-381452132" />
  </person>
  <person id="ped_5" depart="11.78" type="adult">
    <walk from="420331825#4" to="-381452132" />
  </person>
  <person id="ped_6" depart="13.49" type="adult">
    <walk from="420331825#4" to="-381452132" />
  </person>
  <person id="ped_7" depart="14.95" type="adult">
    <walk from="420331825#4" to="-381452132" />
  </person>
  <person id="ped_8" depart="19.74" type="adult">
    <walk from="420331825#4" to="-381452132" />
  </person>
  <person id="ped_9" depart="24.23" type="adult">
    <walk from="420331825#4" to="-381452132" />
  </person>
  <person id="ped_10" depart="26.86" type="elderly">
    <walk from="420331825#4" to="-381452132" />
  </person>
  <person id="ped_11" depart="30.42" type="adult">
    <walk from="420331825#4" to="-381452132" />
  </person>
  <person id="ped_12" depart="40.82" type="adult">
    <walk from="420331825#4" to="-381452132" />
  </person>
  <person id="ped_13" depart="45.76" type="elderly">
    <walk from="420331825#4" to="-381452132" />
  </person>
  <person id="ped_14" depart="49.18" type="adult">
    <walk from="420331825#4" to="-381452132" />
  </person>
  <person id="ped_15" depart="53.21" type="adult">
    <walk from="420331825#4" to="-381452132" />
  </person>
  <person id="ped_16" depart="55.77" type="adult">
    <walk from="420331825#4" to="-381452132" />
  </person>
  <person id="ped_17" depart="67.40" type="elderly">
    <walk from="420331825#4" to="-381452132" />
  </person>
  <person id="ped_18" depart="67.58" type="adult">
    <walk from="420331825#4" to="-381452132" />
  </person>
  <person id="ped_19" depart="71.40" type="adult">
    <walk from="420331825#4" to="-381452132" />
  </person>
  <person id="ped_20" depart="72.23" type="adult">
    <walk from="420331825#4" to="-381452132" />
  </person>
  <person id="ped_21" depart="75.11" type="adult">
    <walk from="420331825#4" to="-381452132" />
  </person>
  <person id="ped_22" depart="78.57" type="adult">
    <walk from="420331825#4" to="-381452132" />
  </person>
  <person id="ped_23" depart="79.67" type="adult">
    <walk from="420331825#4" to="-381452132" />
  </person>
  <person id="ped_24" depart="84.68" type="adult">
    <walk from="420331825#4" to="-381452132" />
  </person>
  <person id="ped_25" depart="87.44" type="adult">
    <walk from="420331825#4" to="-381452132" />
  </person>
  <person id="ped_26" depart="91.86" type="adult">
    <walk from="420331825#4" to="-381452132" />
  </person>
  <person id="ped_27" depart="94.61" type="adult">
    <walk from="420331825#4" to="-381452132" />
  </person>
  <person id="ped_28" depart="94.96" type="adult">
    <walk from="420331825#4" to="-381452132" />
  </person>
  <person id="ped_29" depart="96.50" type="adult">
    <walk from="420331825#4" to="-381452132" />
  </person>
  <person id="ped_30" depart="106.44" type="elderly">
    <walk from="420331825#4" to="-381452132" />
  </person>
  <person id="ped_31" depart="106.75" type="adult">
    <walk from="420331825#4" to="-381452132" />
  </person>
  <person id="ped_32" depart="107.19" type="adult">
    <walk from="420331825#4" to="-381452132" />
  </person>
  <person id="ped_33" depart="108.14" type="adult">
    <walk from="420331825#4" to="-381452132" />
  </person>
  <person id="ped_34" depart="108.79" type="elderly">
    <walk from="420331825#4" to="-381452132" />
  </person>
  <person id="ped_35" depart="114.74" type="adult">
    <walk from="420331825#4" to="-381452132" />
  </person>
  <person id="ped_36" depart="120.79" type="adult">
    <walk from="420331825#4" to="-381452132" />
  </person>
  <person id="ped_37" depart="126.27" type="adult">
    <walk from="420331825#4" to="-381452132" />
  </person>
  <person id="ped_38" depart="128.98" type="adult">
    <walk from="420331825#4" to="-381452132" />
  </person>
  <person id="ped_39" depart="131.94" type="adult">
    <walk from="420331825#4" to="-381452132" />
  </person>
  <person id="ped_40" depart="134.21" type="adult">
    <walk from="420331825#4" to="-381452132" />
  </person>
  <person id="ped_41" depart="134.31" type="adult">
    <walk from="420331825#4" to="-381452132" />
  </person>
  <person id="ped_42" depart="135.90" type="elderly">
    <walk from="420331825#4" to="-381452132" />
  </person>
  <person id="ped_43" depart="140.04" type="adult">
    <walk from="420331825#4" to="-381452132" />
  </person>
  <person id="ped_44" depart="141.12" type="adult">
    <walk from="420331825#4" to="-381452132" />
  </person>
  <person id="ped_45" depart="146.58" type="adult">
    <walk from="420331825#4" to="-381452132" />
  </person>
  <person id="ped_46" depart="148.62" type="adult">
    <walk from="420331825#4" to="-381452132" />
  </person>
  <person id="ped_47" depart="157.36" type="adult">
    <walk from="420331825#4" to="-381452132" />
  </person>
  <person id="ped_48" depart="157.46" type="elderly">
    <walk from="420331825#4" to="-381452132" />
  </person>
  <person id="ped_49" depart="158.62" type="adult">
    <walk from="420331825#4" to="-381452132" />
  </person>
  <person id="ped_50" depart="172.10" type="adult">
    <walk from="420331825#4" to="-381452132" />
  </person>
  <person id="ped_51" depart="174.12" type="adult">
    <walk from="420331825#4" to="-381452132" />
  </person>
  <person id="ped_52" depart="176.84" type="elderly">
    <walk from="420331825#4" to="-381452132" />
  </person>
  <person id="ped_53" depart="178.60" type="adult">
    <walk from="420331825#4" to="-381452132" />
  </person>
  <person id="ped_54" depart="182.99" type="adult">
    <walk from="420331825#4" to="-381452132" />
  </person>
  <person id="ped_55" depart="185.97" type="adult">
    <walk from="420331825#4" to="-381452132" />
  </person>
  <person id="ped_56" depart="190.48" type="adult">
    <walk from="420331825#4" to="-381452132" />
  </person>
  <person id="ped_57" depart="192.81" type="adult">
    <walk from="420331825#4" to="-381452132" />
  </person>
  <person id="ped_58" depart="193.49" type="adult">
    <walk from="420331825#4" to="-381452132" />
  </person>
  <person id="ped_59" depart="196.61" type="adult">
    <walk from="420331825#4" to="-381452132" />
  </person>
  <person id="ped_60" depart="196.65" type="adult">
    <walk from="420331825#4" to="-381452132" />
  </person>
  <person id="ped_61" depart="198.43" type="adult">
    <walk from="420331825#4" to="-381452132" />
  </person>
  <person id="ped_62" depart="202.24" type="elderly">
    <walk from="420331825#4" to="-381452132" />
  </person>
  <person id="ped_63" depart="211.80" type="adult">
    <walk from="420331825#4" to="-381452132" />
  </person>
  <person id="ped_64" depart="213.21" type="elderly">
    <walk from="420331825#4" to="-381452132" />
  </person>
  <person id="ped_65" depart="218.39" type="elderly">
    <walk from="420331825#4" to="-381452132" />
  </person>
  <person id="ped_66" depart="220.64" type="adult">
    <walk from="420331825#4" to="-381452132" />
  </person>
  <person id="ped_67" depart="228.00" type="adult">
    <walk from="420331825#4" to="-381452132" />
  </person>
  <person id="ped_68" depart="231.60" type="adult">
    <walk from="420331825#4" to="-381452132" />
  </person>
  <person id="ped_69" depart="242.37" type="adult">
    <walk from="420331825#4" to="-381452132" />
  </person>
  <person id="ped_70" depart="250.19" type="adult">
    <walk from="420331825#4" to="-381452132" />
  </person>
  <person id="ped_71" depart="256.05" type="adult">
    <walk from="420331825#4" to="-381452132" />
  </person>
  <person id="ped_72" depart="256.66" type="adult">
    <walk from="420331825#4" to="-381452132" />
  </person>
  <person id="ped_73" depart="257.50" type="adult">
    <walk from="420331825#4" to="-381452132" />
  </person>
  <person id="ped_74" depart="261.91" type="adult">
    <walk from="420331825#4" to="-381452132" />
  </person>
  <person id="ped_75" depart="264.76" type="adult">
    <walk from="420331825#4" to="-381452132" />
  </person>
  <person id="ped_76" depart="266.47" type="adult">
    <walk from="420331825#4" to="-381452132" />
  </person>
  <person id="ped_77" depart="269.66" type="adult">
    <walk from="420331825#4" to="-381452132" />
  </person>
  <person id="ped_78" depart="274.04" type="adult">
    <walk from="420331825#4" to="-381452132" />
  </person>
  <person id="ped_79" depart="274.38" type="adult">
    <walk from="420331825#4" to="-381452132" />
  </person>
  <person id="ped_80" depart="274.43" type="elderly">
    <walk from="420331825#4" to="-381452132" />
  </person>
  <person id="ped_81" depart="275.89" type="adult">
    <walk from="420331825#4" to="-381452132" />
  </person>
  <person id="ped_82" depart="279.41" type="elderly">
    <walk from="420331825#4" to="-381452132" />
  </person>
  <person id="ped_83" depart="283.51" type="adult">
    <walk from="420331825#4" to="-381452132" />
  </person>
  <person id="ped_84" depart="284.86" type="elderly">
    <walk from="420331825#4" to="-381452132" />
  </person>
  <person id="ped_85" depart="285.01" type="adult">
    <walk from="420331825#4" to="-381452132" />
  </person>
  <person id="ped_86" depart="290.86" type="adult">
    <walk from="420331825#4" to="-381452132" />
  </person>
  <person id="ped_87" depart="291.29" type="adult">
    <walk from="420331825#4" to="-381452132" />
  </person>
  <person id="ped_88" depart="291.75" type="adult">
    <walk from="420331825#4" to="-381452132" />
  </person>
  <person id="ped_89" depart="292.03" type="adult">
    <walk from="420331825#4" to="-381452132" />
  </person>
  <person id="ped_90" depart="296.21" type="adult">
    <walk from="420331825#4" to="-381452132" />
  </person>
  <person id="ped_91" depart="298.00" type="adult">
    <walk from="420331825#4" to="-381452132" />
  </person>
  <person id="ped_92" depart="298.11" type="adult">
    <walk from="420331825#4" to="-381452132" />
  </person>
  <person id="ped_93" depart="300.40" type="elderly">
    <walk from="420331825#4" to="-381452132" />
  </person>
  <person id="ped_94" depart="303.31" type="adult">
    <walk from="420331825#4" to="-381452132" />
  </person>
  <person id="ped_95" depart="310.86" type="adult">
    <walk from="420331825#4" to="-381452132" />
  </person>
  <person id="ped_96" depart="311.63" type="adult">
    <walk from="420331825#4" to="-381452132" />
  </person>
  <person id="ped_97" depart="331.34" type="adult">
    <walk from="420331825#4" to="-381452132" />
  </person>
  <person id="ped_98" depart="334.04" type="adult">
    <walk from="420331825#4" to="-381452132" />
  </person>
  <person id="ped_99" depart="336.18" type="adult">
    <walk from="420331825#4" to="-381452132" />
  </person>
  <person id="ped_100" depart="338.59" type="adult">
    <walk from="420331825#4" to="-381452132" />
  </person>
  <person id="ped_101" depart="339.53" type="adult">
    <walk from="420331825#4" to="-381452132" />
  </person>
  <person id="ped_102" depart="339.90" type="adult">
    <walk from="420331825#4" to="-381452132" />
  </person>
  <person id="ped_103" depart="339.94" type="adult">
    <walk from="420331825#4" to="-381452132" />
  </person>
  <person id="ped_104" depart="346.16" type="adult">
    <walk from="420331825#4" to="-381452132" />
  </person>
  <person id="ped_105" depart="360.90" type="adult">
    <walk from="420331825#4" to="-381452132" />
  </person>
  <person id="ped_106" depart="382.23" type="adult">
    <walk from="420331825#4" to="-381452132" />
  </person>
  <person id="ped_107" depart="383.75" type="adult">
    <walk from="420331825#4" to="-381452132" />
  </person>
  <person id="ped_108" depart="384.10" type="adult">
    <walk from="420331825#4" to="-381452132" />
  </person>
  <person id="ped_109" depart="384.63" type="adult">
    <walk from="420331825#4" to="-381452132" />
  </person>
  <person id="ped_110" depart="387.19" type="adult">
    <walk from="420331825#4" to="-381452132" />
  </person>
  <person id="ped_111" depart="388.57" type="adult">
    <walk from="420331825#4" to="-381452132" />
  </person>
  <person id="ped_112" depart="388.74" type="adult">
    <walk from="420331825#4" to="-381452132" />
  </person>
  <person id="ped_113" depart="389.55" type="adult">
    <walk from="420331825#4" to="-381452132" />
  </person>
  <person id="ped_114" depart="390.49" type="adult">
    <walk from="420331825#4" to="-381452132" />
  </person>
  <person id="ped_115" depart="392.86" type="adult">
    <walk from="420331825#4" to="-381452132" />
  </person>
  <person id="ped_116" depart="393.75" type="adult">
    <walk from="420331825#4" to="-381452132" />
  </person>
  <person id="ped_117" depart="395.43" type="adult">
    <walk from="420331825#4" to="-381452132" />
  </person>
  <person id="ped_118" depart="406.28" type="adult">
    <walk from="420331825#4" to="-381452132" />
  </person>
  <person id="ped_119" depart="410.84" type="adult">
    <walk from="420331825#4" to="-381452132" />
  </person>
  <person id="ped_120" depart="412.47" type="adult">
    <walk from="420331825#4" to="-381452132" />
  </person>
  <person id="ped_121" depart="415.11" type="adult">
    <walk from="420331825#4" to="-381452132" />
  </person>
  <person id="ped_122" depart="419.90" type="elderly">
    <walk from="420331825#4" to="-381452132" />
  </person>
  <person id="ped_123" depart="421.43" type="adult">
    <walk from="420331825#4" to="-381452132" />
  </person>
  <person id="ped_124" depart="426.51" type="adult">
    <walk from="420331825#4" to="-381452132" />
  </person>
  <person id="ped_125" depart="428.05" type="adult">
    <walk from="420331825#4" to="-381452132" />
  </person>
  <person id="ped_126" depart="428.73" type="adult">
    <walk from="420331825#4" to="-381452132" />
  </person>
  <person id="ped_127" depart="438.69" type="adult">
    <walk from="420331825#4" to="-381452132" />
  </person>
  <person id="ped_128" depart="444.31" type="adult">
    <walk from="420331825#4" to="-381452132" />
  </person>
  <person id="ped_129" depart="446.15" type="adult">
    <walk from="420331825#4" to="-381452132" />
  </person>
  <person id="ped_130" depart="463.42" type="adult">
    <walk from="420331825#4" to="-381452132" />
  </person>
  <person id="ped_131" depart="464.76" type="elderly">
    <walk from="420331825#4" to="-381452132" />
  </person>
  <person id="ped_132" depart="471.43" type="adult">
    <walk from="420331825#4" to="-381452132" />
  </person>
  <person id="ped_133" depart="475.42" type="adult">
    <walk from="420331825#4" to="-381452132" />
  </person>
  <person id="ped_134" depart="476.38" type="adult">
    <walk from="420331825#4" to="-381452132" />
  </person>
  <person id="ped_135" depart="479.63" type="adult">
    <walk from="420331825#4" to="-381452132" />
  </person>
  <person id="ped_136" depart="483.50" type="adult">
    <walk from="420331825#4" to="-381452132" />
  </person>
  <person id="ped_137" depart="488.43" type="adult">
    <walk from="420331825#4" to="-381452132" />
  </person>
  <person id="ped_138" depart="490.29" type="adult">
    <walk from="420331825#4" to="-381452132" />
  </person>
  <person id="ped_139" depart="496.29" type="adult">
    <walk from="420331825#4" to="-381452132" />
  </person>
  <person id="ped_140" depart="499.29" type="elderly">
    <walk from="420331825#4" to="-381452132" />
  </person>
  <person id="ped_141" depart="505.24" type="elderly">
    <walk from="420331825#4" to="-381452132" />
  </person>
  <person id="ped_142" depart="506.27" type="adult">
    <walk from="420331825#4" to="-381452132" />
  </person>
  <person id="ped_143" depart="516.21" type="adult">
    <walk from="420331825#4" to="-381452132" />
  </person>
  <person id="ped_144" depart="528.12" type="adult">
    <walk from="420331825#4" to="-381452132" />
  </person>
  <person id="ped_145" depart="530.82" type="adult">
    <walk from="420331825#4" to="-381452132" />
  </person>
  <person id="ped_146" depart="531.88" type="adult">
    <walk from="420331825#4" to="-381452132" />
  </person>
  <person id="ped_147" depart="549.30" type="elderly">
    <walk from="420331825#4" to="-381452132" />
  </person>
  <person id="ped_148" depart="552.04" type="adult">
    <walk from="420331825#4" to="-381452132" />
  </person>
  <person id="ped_149" depart="555.17" type="adult">
    <walk from="420331825#4" to="-381452132" />
  </person>
  <person id="ped_150" depart="556.53" type="adult">
    <walk from="420331825#4" to="-381452132" />
  </person>
  <person id="ped_151" depart="557.96" type="adult">
    <walk from="420331825#4" to="-381452132" />
  </person>
  <person id="ped_152" depart="562.52" type="adult">
    <walk from="420331825#4" to="-381452132" />
  </person>
  <person id="ped_153" depart="565.64" type="adult">
    <walk from="420331825#4" to="-381452132" />
  </person>
  <person id="ped_154" depart="571.71" type="adult">
    <walk from="420331825#4" to="-381452132" />
  </person>
  <person id="ped_155" depart="578.58" type="adult">
    <walk from="420331825#4" to="-381452132" />
  </person>
  <person id="ped_156" depart="579.32" type="adult">
    <walk from="420331825#4" to="-381452132" />
  </person>
  <person id="ped_157" depart="580.17" type="elderly">
    <walk from="420331825#4" to="-381452132" />
  </person>
  <person id="ped_158" depart="580.68" type="adult">
    <walk from="420331825#4" to="-381452132" />
  </person>
  <person id="ped_159" depart="581.55" type="adult">
    <walk from="420331825#4" to="-381452132" />
  </person>
  <person id="ped_160" depart="582.69" type="elderly">
    <walk from="420331825#4" to="-381452132" />
  </person>
  <person id="ped_161" depart="582.99" type="adult">
    <walk from="420331825#4" to="-381452132" />
  </person>
  <person id="ped_162" depart="604.90" type="adult">
    <walk from="420331825#4" to="-381452132" />
  </person>
  <person id="ped_163" depart="608.27" type="elderly">
    <walk from="420331825#4" to="-381452132" />
  </person>
  <person id="ped_164" depart="608.56" type="adult">
    <walk from="420331825#4" to="-381452132" />
  </person>
  <person id="ped_165" depart="620.66" type="adult">
    <walk from="420331825#4" to="-381452132" />
  </person>
  <person id="ped_166" depart="623.06" type="adult">
    <walk from="420331825#4" to="-381452132" />
  </person>
  <person id="ped_167" depart="623.71" type="adult">
    <walk from="420331825#4" to="-381452132" />
  </person>
  <person id="ped_168" depart="625.12" type="adult">
    <walk from="420331825#4" to="-381452132" />
  </person>
  <person id="ped_169" depart="628.27" type="adult">
    <walk from="420331825#4" to="-381452132" />
  </person>
  <person id="ped_170" depart="630.67" type="adult">
    <walk from="420331825#4" to="-381452132" />
  </person>
  <person id="ped_171" depart="640.09" type="adult">
    <walk from="420331825#4" to="-381452132" />
  </person>
  <person id="ped_172" depart="640.86" type="adult">
    <walk from="420331825#4" to="-381452132" />
  </person>
  <person id="ped_173" depart="648.19" type="adult">
    <walk from="420331825#4" to="-381452132" />
  </person>
  <person id="ped_174" depart="648.66" type="adult">
    <walk from="420331825#4" to="-381452132" />
  </person>
  <person id="ped_175" depart="649.02" type="adult">
    <walk from="420331825#4" to="-381452132" />
  </person>
  <person id="ped_176" depart="653.50" type="adult">
    <walk from="420331825#4" to="-381452132" />
  </person>
  <person id="ped_177" depart="657.79" type="adult">
    <walk from="420331825#4" to="-381452132" />
  </person>
  <person id="ped_178" depart="658.48" type="adult">
    <walk from="420331825#4" to="-381452132" />
  </person>
  <person id="ped_179" depart="661.39" type="adult">
    <walk from="420331825#4" to="-381452132" />
  </person>
  <person id="ped_180" depart="663.23" type="adult">
    <walk from="420331825#4" to="-381452132" />
  </person>
  <person id="ped_181" depart="663.38" type="adult">
    <walk from="420331825#4" to="-381452132" />
  </person>
  <person id="ped_182" depart="670.79" type="adult">
    <walk from="420331825#4" to="-381452132" />
  </person>
  <person id="ped_183" depart="675.94" type="adult">
    <walk from="420331825#4" to="-381452132" />
  </person>
  <person id="ped_184" depart="680.51" type="elderly">
    <walk from="420331825#4" to="-381452132" />
  </person>
  <person id="ped_185" depart="688.34" type="adult">
    <walk from="420331825#4" to="-381452132" />
  </person>
  <person id="ped_186" depart="689.85" type="adult">
    <walk from="420331825#4" to="-381452132" />
  </person>
  <person id="ped_187" depart="690.58" type="adult">
    <walk from="420331825#4" to="-381452132" />
  </person>
  <person id="ped_188" depart="691.01" type="adult">
    <walk from="420331825#4" to="-381452132" />
  </person>
  <person id="ped_189" depart="693.36" type="elderly">
    <walk from="420331825#4" to="-381452132" />
  </person>
  <person id="ped_190" depart="698.35" type="adult">
    <walk from="420331825#4" to="-381452132" />
  </person>
  <person id="ped_191" depart="709.62" type="adult">
    <walk from="420331825#4" to="-381452132" />
  </person>
  <person id="ped_192" depart="711.27" type="adult">
    <walk from="420331825#4" to="-381452132" />
  </person>
  <person id="ped_193" depart="725.75" type="adult">
    <walk from="420331825#4" to="-381452132" />
  </person>
  <person id="ped_194" depart="733.03" type="adult">
    <walk from="420331825#4" to="-381452132" />
  </person>
  <person id="ped_195" depart="737.32" type="adult">
    <walk from="420331825#4" to="-381452132" />
  </person>
  <person id="ped_196" depart="742.87" type="adult">
    <walk from="420331825#4" to="-381452132" />
  </person>
  <person id="ped_197" depart="744.23" type="adult">
    <walk from="420331825#4" to="-381452132" />
  </person>
  <person id="ped_198" depart="746.40" type="adult">
    <walk from="420331825#4" to="-381452132" />
  </person>
  <person id="ped_199" depart="747.38" type="adult">
    <walk from="420331825#4" to="-381452132" />
  </person>
  <person id="ped_200" depart="748.33" type="adult">
    <walk from="420331825#4" to="-381452132" />
  </person>
  <person id="ped_201" depart="748.58" type="adult">
    <walk from="420331825#4" to="-381452132" />
  </person>
  <person id="ped_202" depart="751.05" type="adult">
    <walk from="420331825#4" to="-381452132" />
  </person>
  <person id="ped_203" depart="760.15" type="adult">
    <walk from="420331825#4" to="-381452132" />
  </person>
  <person id="ped_204" depart="770.44" type="adult">
    <walk from="420331825#4" to="-381452132" />
  </person>
  <person id="ped_205" depart="772.35" type="adult">
    <walk from="420331825#4" to="-381452132" />
  </person>
  <person id="ped_206" depart="774.91" type="adult">
    <walk from="420331825#4" to="-381452132" />
  </person>
  <person id="ped_207" depart="778.01" type="adult">
    <walk from="420331825#4" to="-381452132" />
  </person>
  <person id="ped_208" depart="781.44" type="adult">
    <walk from="420331825#4" to="-381452132" />
  </person>
  <person id="ped_209" depart="782.05" type="elderly">
    <walk from="420331825#4" to="-381452132" />
  </person>
  <person id="ped_210" depart="786.23" type="adult">
    <walk from="420331825#4" to="-381452132" />
  </person>
  <person id="ped_211" depart="793.93" type="adult">
    <walk from="420331825#4" to="-381452132" />
  </person>
  <person id="ped_212" depart="796.74" type="adult">
    <walk from="420331825#4" to="-381452132" />
  </person>
  <person id="ped_213" depart="796.91" type="adult">
    <walk from="420331825#4" to="-381452132" />
  </person>
  <person id="ped_214" depart="801.35" type="adult">
    <walk from="420331825#4" to="-381452132" />
  </person>
  <person id="ped_215" depart="801.82" type="adult">
    <walk from="420331825#4" to="-381452132" />
  </person>
  <person id="ped_216" depart="803.30" type="adult">
    <walk from="420331825#4" to="-381452132" />
  </person>
  <person id="ped_217" depart="808.21" type="adult">
    <walk from="420331825#4" to="-381452132" />
  </person>
  <person id="ped_218" depart="809.06" type="elderly">
    <walk from="420331825#4" to="-381452132" />
  </person>
  <person id="ped_219" depart="812.77" type="adult">
    <walk from="420331825#4" to="-381452132" />
  </person>
  <person id="ped_220" depart="813.43" type="adult">
    <walk from="420331825#4" to="-381452132" />
  </person>
  <person id="ped_221" depart="815.16" type="adult">
    <walk from="420331825#4" to="-381452132" />
  </person>
  <person id="ped_222" depart="819.15" type="adult">
    <walk from="420331825#4" to="-381452132" />
  </person>
  <person id="ped_223" depart="819.75" type="adult">
    <walk from="420331825#4" to="-381452132" />
  </person>
  <person id="ped_224" depart="821.64" type="adult">
    <walk from="420331825#4" to="-381452132" />
  </person>
  <person id="ped_225" depart="821.69" type="adult">
    <walk from="420331825#4" to="-381452132" />
  </person>
  <person id="ped_226" depart="823.65" type="adult">
    <walk from="420331825#4" to="-381452132" />
  </person>
  <person id="ped_227" depart="823.83" type="elderly">
    <walk from="420331825#4" to="-381452132" />
  </person>
  <person id="ped_228" depart="824.47" type="adult">
    <walk from="420331825#4" to="-381452132" />
  </person>
  <person id="ped_229" depart="826.55" type="adult">
    <walk from="420331825#4" to="-381452132" />
  </person>
  <person id="ped_230" depart="837.15" type="adult">
    <walk from="420331825#4" to="-381452132" />
  </person>
  <person id="ped_231" depart="838.12" type="elderly">
    <walk from="420331825#4" to="-381452132" />
  </person>
  <person id="ped_232" depart="855.53" type="adult">
    <walk from="420331825#4" to="-381452132" />
  </person>
  <person id="ped_233" depart="855.68" type="adult">
    <walk from="420331825#4" to="-381452132" />
  </person>
  <person id="ped_234" depart="857.57" type="adult">
    <walk from="420331825#4" to="-381452132" />
  </person>
  <person id="ped_235" depart="865.81" type="adult">
    <walk from="420331825#4" to="-381452132" />
  </person>
  <person id="ped_236" depart="869.24" type="adult">
    <walk from="420331825#4" to="-381452132" />
  </person>
  <person id="ped_237" depart="869.34" type="adult">
    <walk from="420331825#4" to="-381452132" />
  </person>
  <person id="ped_238" depart="883.85" type="adult">
    <walk from="420331825#4" to="-381452132" />
  </person>
  <person id="ped_239" depart="885.58" type="elderly">
    <walk from="420331825#4" to="-381452132" />
  </person>
  <person id="ped_240" depart="885.70" type="adult">
    <walk from="420331825#4" to="-381452132" />
  </person>
  <person id="ped_241" depart="887.70" type="adult">
    <walk from="420331825#4" to="-381452132" />
  </person>
  <person id="ped_242" depart="887.84" type="adult">
    <walk from="420331825#4" to="-381452132" />
  </person>
  <person id="ped_243" depart="889.58" type="adult">
    <walk from="420331825#4" to="-381452132" />
  </person>
  <person id="ped_244" depart="892.11" type="adult">
    <walk from="420331825#4" to="-381452132" />
  </person>
  <person id="ped_245" depart="897.47" type="adult">
    <walk from="420331825#4" to="-381452132" />
  </person>
  <person id="ped_246" depart="904.21" type="adult">
    <walk from="420331825#4" to="-381452132" />
  </person>
  <person id="ped_247" depart="915.68" type="elderly">
    <walk from="420331825#4" to="-381452132" />
  </person>
  <person id="ped_248" depart="917.39" type="elderly">
    <walk from="420331825#4" to="-381452132" />
  </person>
  <person id="ped_249" depart="918.89" type="adult">
    <walk from="420331825#4" to="-381452132" />
  </person>
  <person id="ped_250" depart="920.72" type="adult">
    <walk from="420331825#4" to="-381452132" />
  </person>
  <person id="ped_251" depart="931.34" type="adult">
    <walk from="420331825#4" to="-381452132" />
  </person>
  <person id="ped_252" depart="933.06" type="elderly">
    <walk from="420331825#4" to="-381452132" />
  </person>
  <person id="ped_253" depart="935.48" type="elderly">
    <walk from="420331825#4" to="-381452132" />
  </person>
  <person id="ped_254" depart="937.02" type="adult">
    <walk from="420331825#4" to="-381452132" />
  </person>
  <person id="ped_255" depart="938.98" type="adult">
    <walk from="420331825#4" to="-381452132" />
  </person>
  <person id="ped_256" depart="941.75" type="adult">
    <walk from="420331825#4" to="-381452132" />
  </person>
  <person id="ped_257" depart="944.48" type="adult">
    <walk from="420331825#4" to="-381452132" />
  </person>
  <person id="ped_258" depart="948.21" type="adult">
    <walk from="420331825#4" to="-381452132" />
  </person>
  <person id="ped_259" depart="948.77" type="adult">
    <walk from="420331825#4" to="-381452132" />
  </person>
  <person id="ped_260" depart="949.27" type="adult">
    <walk from="420331825#4" to="-381452132" />
  </person>
  <person id="ped_261" depart="955.79" type="adult">
    <walk from="420331825#4" to="-381452132" />
  </person>
  <person id="ped_262" depart="960.94" type="adult">
    <walk from="420331825#4" to="-381452132" />
  </person>
  <person id="ped_263" depart="962.76" type="adult">