<?xml version="1.0" encoding="UTF-8"?>

<!-- generated on 2026-04-17 14:30:56.480004 by Eclipse SUMO randomTrips.py v1.26.0
<configuration>
    <net-file value="/Users/junlee/Desktop/2026-1/js/result/veh_sensitivity_short_cw3_20260417_143049/peak_x1p0_cw3_seed3_20min/sumo_nets/cw_71666/network.net.xml"/>
    <output-trip-file value="/Users/junlee/Desktop/2026-1/js/result/veh_sensitivity_short_cw3_20260417_143049/peak_x1p0_cw3_seed3_20min/sumo_nets/cw_71666/routes_seed44.trips.xml"/>
    <route-file value="/Users/junlee/Desktop/2026-1/js/result/veh_sensitivity_short_cw3_20260417_143049/peak_x1p0_cw3_seed3_20min/sumo_nets/cw_71666/routes_seed44.rou.xml"/>
    <vehicle-class value="passenger"/>
    <seed value="44"/>
    <end value="1200.0"/>
    <period value="2.5828151160453885"/>
</configuration>
-->

<!-- generated on 2026-04-17T14:30:56.463365+09:00 by Eclipse SUMO duarouter 1.26.0
<duarouterConfiguration xmlns:xsi="http://www.w3.org/2001/XMLSchema-instance" xsi:noNamespaceSchemaLocation="http://sumo.dlr.de/xsd/duarouterConfiguration.xsd">

    <input>
        <net-file value="/Users/junlee/Desktop/2026-1/js/result/veh_sensitivity_short_cw3_20260417_143049/peak_x1p0_cw3_seed3_20min/sumo_nets/cw_71666/network.net.xml"/>
        <route-files value="/Users/junlee/Desktop/2026-1/js/result/veh_sensitivity_short_cw3_20260417_143049/peak_x1p0_cw3_seed3_20min/sumo_nets/cw_71666/routes_seed44.trips.xml"/>
    </input>

    <output>
        <output-file value="/Users/junlee/Desktop/2026-1/js/result/veh_sensitivity_short_cw3_20260417_143049/peak_x1p0_cw3_seed3_20min/sumo_nets/cw_71666/routes_seed44.rou.xml"/>
        <alternatives-output value="NUL"/>
    </output>

    <time>
        <begin value="0.0"/>
        <end value="1200.0"/>
    </time>

    <report>
        <no-warnings value="true"/>
        <ignore-errors value="true"/>
        <no-step-log value="true"/>
    </report>

</duarouterConfiguration>
-->

<routes xmlns:xsi="http://www.w3.org/2001/XMLSchema-instance" xsi:noNamespaceSchemaLocation="http://sumo.dlr.de/xsd/routes_file.xsd">
    <vType id="passenger" vClass="passenger"/>
    <vehicle id="0" type="passenger" depart="0.00">
        <route edges="-601902513#1 -381447836#3 -381447836#2 -381447836#0 381447818 117914348#3"/>
    </vehicle>
    <vehicle id="1" type="passenger" depart="2.58">
        <route edges="420331825#2 420331825#3 601902513#0 -381447836#3"/>
    </vehicle>
    <vehicle id="2" type="passenger" depart="5.17">
        <route edges="-381452122#3 -913009312#8 -913009312#7 -913009312#6 -913009312#5 -381452132 -117914343#2"/>
    </vehicle>
    <vehicle id="3" type="passenger" depart="7.75">
        <route edges="-244215399 -1126339777#1"/>
    </vehicle>
    <vehicle id="4" type="passenger" depart="10.33">
        <route edges="-381447833#1 420331827 -218773868#2 -218773868#1 -218773868#0 -913009312#8 -913009312#7 -913009312#6 -913009312#5 -913009312#4 117914343#0 117914343#1 117914343#2"/>
    </vehicle>
    <vehicle id="5" type="passenger" depart="12.91">
        <route edges="913009313#1 913009311 1126339777#0 1126339777#1 -420331831 117914348#0 117914348#1 117914351#0 381447836#0"/>
    </vehicle>
    <vehicle id="6" type="passenger" depart="15.50">
        <route edges="-420331830 -381447836#2 381447834#0 -117914348#0 -601902513#1"/>
    </vehicle>
    <vehicle id="7" type="passenger" depart="18.08">
        <route edges="381447836#3 -601902513#0 420331825#4 913009312#5 913009312#6 913009312#7 913009312#8 381452122#3 -381452175#2 -381452175#1 -381452175#0 -420319848#1 -420319848#0"/>
    </vehicle>
    <vehicle id="8" type="passenger" depart="20.66">
        <route edges="-117914352#0 420317543#0 420317543#1 244215552#1 520307306 913009311 913009312#1 913009312#2 913009312#3 117914343#0 117914343#1 117914343#2 420319848#0 420319848#1"/>
    </vehicle>
    <vehicle id="9" type="passenger" depart="23.25">
        <route edges="381447827 913009313#1 913009311 913009312#1 913009312#2 913009312#3 913009312#4 913009312#5 913009312#6 913009312#7 913009312#8 913009312#9 218773868#1 218773868#2 218773868#3 -381447817#1"/>
    </vehicle>
    <vehicle id="10" type="passenger" depart="25.83">
        <route edges="-117914351#2 381447836#0 381447817#0 381447817#1 -218773868#3"/>
    </vehicle>
    <vehicle id="11" type="passenger" depart="28.41">
        <route edges="913009312#5 913009312#6 913009312#7 913009312#8 913009312#9 218773868#1 218773868#2 218773868#3 -381447817#1"/>
    </vehicle>
    <vehicle id="12" type="passenger" depart="30.99">
        <route edges="381447831 -218773868#3 -420331827 381447833#1 420331825#4 913009312#5 913009312#6"/>
    </vehicle>
    <vehicle id="13" type="passenger" depart="33.58">
        <route edges="-117914348#0 -381447829#0 -913009312#4 -913009312#3 -913009312#2 -913009312#1 1126339777#0 1126339777#1 -420331831"/>
    </vehicle>
    <vehicle id="14" type="passenger" depart="36.16">
        <route edges="-381447836#3 420331830 420331825#3 420331825#4 913009312#5 913009312#6 913009312#7 913009312#8 381452122#3 -381452175#2 -381452175#1"/>
    </vehicle>
    <vehicle id="15" type="passenger" depart="38.74">
        <route edges="-381452167 117914352#1 420317543#1 244215552#1 520307306 913009311 1126339777#0 1126339777#1 -420331831 -601902513#1 -381447836#3 -381447836#2 -381447836#0 381447818 -117914348#2"/>
    </vehicle>
    <vehicle id="16" type="passenger" depart="41.33">
        <route edges="381447835#3 -913009312#5 -913009312#4 117914343#0 381452104#0 381452104#1 -420319840#1 -420319840#0 -381452167 117914352#1 420317544#1"/>
    </vehicle>
    <vehicle id="17" type="passenger" depart="43.91">
        <route edges="-913009312#3 -913009312#2 -913009312#1 1126339777#0 1126339777#1 -420331831 -601902513#1 -381447836#3 -381447836#2 381447834#0 -117914348#0"/>
    </vehicle>
    <vehicle id="18" type="passenger" depart="46.49">
        <route edges="381452106 381452108#1"/>
    </vehicle>
    <vehicle id="19" type="passenger" depart="49.07">
        <route edges="381447835#0 381447835#1 381447835#2 381447835#3 913009312#6 913009312#7 913009312#8 381452122#3 -381452175#2 -381452175#1 -381452175#0 -420319848#1 -420319848#0"/>
    </vehicle>
    <vehicle id="20" type="passenger" depart="51.66">
        <route edges="420319847 381452175#2 -381452122#3 -913009312#8 -913009312#7 -913009312#6 -913009312#5 381447829#0"/>
    </vehicle>
    <vehicle id="21" type="passenger" depart="54.24">
        <route edges="244215552#1 520307306 913009311 1126339777#0 1126339777#1 -420331831 117914348#0 117914348#1 117914348#2 117914348#3"/>
    </vehicle>
    <vehicle id="22" type="passenger" depart="56.82">
        <route edges="-381452132 420319848#0 420319848#1 381452175#0 381452175#1 381452175#2 -381452122#3 -913009312#8 -913009312#7 -913009312#6"/>
    </vehicle>
    <vehicle id="23" type="passenger" depart="59.40">
        <route edges="420317540 420317543#0 420317543#1 244215552#1 520307306 913009311 913009312#1 913009312#2 913009312#3 913009312#4 913009312#5 913009312#6 913009312#7 913009312#8 913009312#9 381447835#0 381447835#1 381447835#2 381447835#3"/>
    </vehicle>
    <vehicle id="24" type="passenger" depart="61.99">
        <route edges="-420331825#1 -117914351#2 -117914351#0 -117914348#1 -117914348#0 -381447829#0 -913009312#4 117914343#0 381452104#0 381452104#1 -420319840#1 -420319840#0 -381452167 117914352#1 420317544#1"/>
    </vehicle>
    <vehicle id="25" type="passenger" depart="64.57">
        <route edges="420319848#0 420319848#1 381452175#0 381452175#1 381452175#2 -381452122#3 -913009312#8 -913009312#7 -913009312#6 -913009312#5 -420331825#4 -420331825#3 -420331830 -381447836#2 -381447836#0 -117914351#0 -117914348#1"/>
    </vehicle>
    <vehicle id="26" type="passenger" depart="67.15">
        <route edges="-381447833#1 420331827 -218773868#2 -218773868#1 -218773868#0 -913009312#8 -913009312#7 -913009312#6 -913009312#5 -381452132"/>
    </vehicle>
    <vehicle id="27" type="passenger" depart="69.74">
        <route edges="-117914343#0 913009312#4 913009312#5 913009312#6 913009312#7 913009312#8 381452122#3 -381452175#2 -381452175#1 -381452175#0 -420319848#1 -420319848#0 381452132"/>
    </vehicle>
    <vehicle id="28" type="passenger" depart="72.32">
        <route edges="381447834#0 117914348#1 117914351#0"/>
    </vehicle>
    <vehicle id="29" type="passenger" depart="74.90">
        <route edges="913009315 520307306 913009311 913009312#1 913009312#2 913009312#3 913009312#4 -420331825#4 -420331825#3 -420331825#2"/>
    </vehicle>
    <vehicle id="30" type="passenger" depart="77.48">
        <route edges="-381452104#1 -381452104#0 -117914343#0 913009312#4 913009312#5 913009312#6 913009312#7 913009312#8 913009312#9 218773868#1 218773868#2 218773868#3 -381447817#1"/>
    </vehicle>
    <vehicle id="31" type="passenger" depart="80.07">
        <route edges="-420319848#2 -420319848#1 -420319848#0 -117914343#2 -117914343#1 -117914343#0 913009312#4 -381452132 420319848#0"/>
    </vehicle>
    <vehicle id="32" type="passenger" depart="82.65">
        <route edges="381447818 -117914348#2 -117914348#1 -381447834#0 -381447836#0 -117914351#0"/>
    </vehicle>
    <vehicle id="33" type="passenger" depart="85.23">
        <route edges="-913009312#2 -913009312#1 1126339777#0 1126339777#1 -420331831 -601902513#1 -381447836#3 -381447836#2 -381447836#0 381447818 -117914348#2"/>
    </vehicle>
    <vehicle id="34" type="passenger" depart="87.82">
        <route edges="381447829#0 420331831 -1126339777#1 -1126339777#0 -913009311 -913009313#1 -381447827"/>
    </vehicle>
    <vehicle id="35" type="passenger" depart="90.40">
        <route edges="-381447836#2 381447817#0 381447817#1 -218773868#3 -420331827 381447833#1"/>
    </vehicle>
    <vehicle id="36" type="passenger" depart="92.98">
        <route edges="420319848#0 420319848#1 381452175#0 381452175#1 381452175#2 -381452122#3 -913009312#8 -913009312#7 -913009312#6 -913009312#5 -420331825#4 -420331825#3 -420331825#2 381447817#1"/>
    </vehicle>
    <vehicle id="37" type="passenger" depart="95.56">
        <route edges="-420317543#1 -420317544#0 381452167 420319840#0 420319840#1 -381452104#1 -381452104#0 -117914343#0 913009312#4 913009312#5 913009312#6 913009312#7 913009312#8 913009312#9 218773868#1 218773868#2 -420331827 381447833#1"/>
    </vehicle>
    <vehicle id="38" type="passenger" depart="98.15">
        <route edges="-381452175#1 -381452175#0 -420319848#1 -420319848#0 381452132 381447829#0 420331831 -1126339777#1"/>
    </vehicle>
    <vehicle id="39" type="passenger" depart="100.73">
        <route edges="-381452175#1 -381452175#0 -420319848#1 -420319848#0 381452132 913009312#5 913009312#6 913009312#7 913009312#8 913009312#9 381447835#0 381447835#1 381447835#2 381447835#3"/>
    </vehicle>
    <vehicle id="40" type="passenger" depart="103.31">
        <route edges="381447831 -218773868#3 -218773868#2 -218773868#1 -218773868#0 -913009312#8 -913009312#7 -913009312#6 -913009312#5 -913009312#4 117914343#0 117914343#1 381452108#0 -381452106"/>
    </vehicle>
    <vehicle id="41" type="passenger" depart="105.90">
        <route edges="420319848#0 420319848#1 381452175#0 381452175#1 381452175#2 -381452122#3 -913009312#8 -913009312#7 -913009312#6 -913009312#5 -913009312#4 117914343#0 381452104#0 381452174#0 420319840#0 420319840#1"/>
    </vehicle>
    <vehicle id="42" type="passenger" depart="108.48">
        <route edges="-381452175#2 -381452175#1 -381452175#0 -420319848#1 -420319848#0 381452132 913009312#5"/>
    </vehicle>
    <vehicle id="43" type="passenger" depart="111.06">
        <route edges="-381452174#1 -381452174#0 -381452104#0 -117914343#0 913009312#4 -420331825#4 -420331825#3 -420331825#2 -420331825#1 -117914351#2"/>
    </vehicle>
    <vehicle id="44" type="passenger" depart="113.64">
        <route edges="117914343#2 381452132 913009312#5 913009312#6 913009312#7 913009312#8 913009312#9 218773868#1 218773868#2 218773868#3 -381447817#1 420331825#2"/>
    </vehicle>
    <vehicle id="45" type="passenger" depart="116.23">
        <route edges="381447817#1 -218773868#3 -218773868#2 -218773868#1 -218773868#0 -913009312#8 -913009312#7 -913009312#6 -913009312#5 381447829#0 117914348#0 117914348#1 117914351#0"/>
    </vehicle>
    <vehicle id="46" type="passenger" depart="118.81">
        <route edges="1126339777#1 -420331831 -381447829#0 -913009312#4 117914343#0 381452104#0 381452104#1 -420319840#1 -420319840#0 -381452167 117914352#1 -420317543#0"/>
    </vehicle>
    <vehicle id="47" type="passenger" depart="121.39">
        <route edges="-420317544#0 -117914352#0 420317543#0 420317543#1 244215552#1 520307306 913009311 1126339777#0 1126339777#1 -420331831 -601902513#1 -601902513#0"/>
    </vehicle>
    <vehicle id="48" type="passenger" depart="123.98">
        <route edges="117914352#0 117914352#1 420317543#1 244215552#1 520307306 913009311 913009312#1 913009312#2"/>
    </vehicle>
    <vehicle id="49" type="passenger" depart="126.56">
        <route edges="-117914352#0 420317543#0 420317543#1 244215552#1 520307306 913009311 913009312#1 913009312#2 913009312#3 913009312#4 913009312#5 913009312#6 913009312#7 913009312#8 381452122#3 -381452175#2 -381452175#1 -381452175#0"/>
    </vehicle>
    <vehicle id="50" type="passenger" depart="129.14">
        <route edges="913009312#3 913009312#4 381447829#0 117914348#0 381447834#1"/>
    </vehicle>
    <vehicle id="51" type="passenger" depart="131.72">
        <route edges="-117914352#0 420317543#0 420317543#1 244215552#1 520307306 913009311 1126339777#0 1126339777#1 -420331831 -381447829#0 -913009312#4"/>
    </vehicle>
    <vehicle id="52" type="passenger" depart="134.31">
        <route edges="381447834#0 -117914348#0 -381447829#0 -913009312#4 117914343#0 381452104#0 381452104#1 -420319840#1 -420319840#0 -381452167 117914352#1 420317543#1 244215552#1 520307306"/>
    </vehicle>
    <vehicle id="53" type="passenger" depart="136.89">
        <route edges="-218773868#0 -913009312#8 -913009312#7 -913009312#6 -913009312#5 -913009312#4 -913009312#3 -913009312#2 -913009312#1 420335669"/>
    </vehicle>
    <vehicle id="54" type="passenger" depart="139.47">
        <route edges="381452175#0 381452175#1 381452175#2 -381452122#3 -913009312#8 -913009312#7 -913009312#6 -913009312#5 -913009312#4 117914343#0 381452104#0 381452104#1 -420319840#1 -420319840#0 -381452167 117914352#1 -420317543#0"/>
    </vehicle>
    <vehicle id="55" type="passenger" depart="142.05">
        <route edges="117914351#0 117914351#2 420331825#1 420331825#2 420331825#3 420331825#4 -913009312#4 117914343#0 381452104#0 381452174#0 420319840#0"/>
    </vehicle>
    <vehicle id="56" type="passenger" depart="144.64">
        <route edges="-381452160 -381452175#0 -420319848#1 -420319848#0 381452132 -420331825#4 -420331825#3 -420331825#2 -381447817#0 381447836#2"/>
    </vehicle>
    <vehicle id="57" type="passenger" depart="147.22">
        <route edges="218773868#1 381447833#0 420331827 -218773868#2 -218773868#1 -218773868#0"/>
    </vehicle>
    <vehicle id="58" type="passenger" depart="149.80">
        <route edges="-381452175#1 -381452175#0 -420319848#1 -420319848#0 -117914343#2 -117914343#1 -117914343#0 -913009312#3 -913009312#2 -913009312#1 -913009311"/>
    </vehicle>
    <vehicle id="59" type="passenger" depart="152.39">
        <route edges="-381447829#0 -420331825#4 601902513#0 601902513#1 420331831 -1126339777#1 -1126339777#0 913009312#1 913009312#2"/>
    </vehicle>
    <vehicle id="60" type="passenger" depart="154.97">
        <route edges="-381452174#0 381452104#1 -420319840#1 -420319840#0 -381452167"/>
    </vehicle>
    <vehicle id="61" type="passenger" depart="157.55">
        <route edges="381447817#0 420331825#2 -420331830 -381447836#2 381447834#0 117914348#1"/>
    </vehicle>
    <vehicle id="62" type="passenger" depart="160.13">
        <route edges="-420319840#1 -420319840#0 -381452174#0 -381452104#0 -117914343#0 913009312#4 913009312#5 913009312#6 913009312#7 913009312#8 381452122#3 -381452175#2 -381452175#1 -381452175#0 -420319848#1 -420319848#0"/>
    </vehicle>
    <vehicle id="63" type="passenger" depart="162.72">
        <route edges="117914343#0 381452104#0 381452104#1 -420319840#1 -420319840#0 -381452167 117914352#1 420317543#1 244215552#1 520307306"/>
    </vehicle>
    <vehicle id="64" type="passenger" depart="165.30">
        <route edges="-218773868#0 -913009312#8 -913009312#7 -913009312#6 -913009312#5 -913009312#4 117914343#0 381452104#0 381452104#1 -420319840#1 -420319840#0 -381452167 117914352#1 420317543#1 244215552#1 520307306"/>
    </vehicle>
    <vehicle id="65" type="passenger" depart="167.88">
        <route edges="913009312#2 913009312#3 913009312#4 913009312#5 913009312#6 913009312#7 913009312#8 913009312#9 381447835#0 381447835#1 381447835#2 381447835#3"/>
    </vehicle>
    <vehicle id="66" type="passenger" depart="170.47">
        <route edges="420317543#1 244215552#1 520307306 913009311 913009312#1 913009312#2 913009312#3 913009312#4 -420331825#4 -420331825#3 -420331830"/>
    </vehicle>
    <vehicle id="67" type="passenger" depart="173.05">
        <route edges="913009312#6 913009312#7 913009312#8 381452122#3"/>
    </vehicle>
    <vehicle id="68" type="passenger" depart="175.63">
        <route edges="381447836#2 381447836#3 -601902513#0 -381447833#1 420331827 -218773868#2 -218773868#1 -218773868#0 -913009312#8 -913009312#7 -913009312#6 -913009312#5"/>
    </vehicle>
    <vehicle id="69" type="passenger" depart="178.21">
        <route edges="-381452108#1 -381452108#0 -117914343#1 -117914343#0 913009312#4 381447829#0 117914348#0 117914348#1 117914351#0 381447836#0"/>
    </vehicle>
    <vehicle id="70" type="passenger" depart="180.80">
        <route edges="381452122#3 -381452175#2 -381452175#1 -381452175#0 -420319848#1 -420319848#0 381452132 381447829#0 420331831 -1126339777#1 -1126339777#0"/>
    </vehicle>
    <vehicle id="71" type="passenger" depart="183.38">
        <route edges="-420319840#0 -381452174#0 -381452104#0 -117914343#0 913009312#4 381447829#0 117914348#0 117914348#1 117914348#2"/>
    </vehicle>
    <vehicle id="72" type="passenger" depart="185.96">
        <route edges="-381452108#0 -117914343#1 -117914343#0 -913009312#3 -913009312#2 -913009312#1 1126339777#0 1126339777#1 -420331831 -381447829#0"/>
    </vehicle>
    <vehicle id="73" type="passenger" depart="188.55">
        <route edges="-381447836#3 420331830 420331825#3 420331825#4 -381452132 -117914343#2 -117914343#1 -117914343#0"/>
    </vehicle>
    <vehicle id="74" type="passenger" depart="191.13">
        <route edges="-381447817#0 381447836#2 381447836#3 601902513#1 420331831 -1126339777#1 -1126339777#0 -913009311 -520307306"/>
    </vehicle>
    <vehicle id="75" type="passenger" depart="193.71">
        <route edges="117914343#1 117914343#2 381452132 913009312#5 913009312#6 913009312#7 913009312#8 913009312#9 218773868#1 381447833#0"/>
    </vehicle>
    <vehicle id="76" type="passenger" depart="196.29">
        <route edges="-420317544#1 420317543#1 244215552#1 520307306 913009311 1126339777#0 1126339777#1 -420331831 -381447829#0"/>
    </vehicle>
    <vehicle id="77" type="passenger" depart="198.88">
        <route edges="601902513#1 420331831 -1126339777#1 -1126339777#0 913009312#1 913009312#2 913009312#3 913009312#4 381447829#0"/>
    </vehicle>
    <vehicle id="78" type="passenger" depart="201.46">
        <route edges="381447836#0"/>
    </vehicle>
    <vehicle id="79" type="passenger" depart="204.04">
        <route edges="-420319840#1 -420319840#0 -381452174#0 -381452104#0 -117914343#0 913009312#4 913009312#5 913009312#6 913009312#7 913009312#8 913009312#9 218773868#1 218773868#2 218773868#3 218773868#4"/>
    </vehicle>
    <vehicle id="80" type="passenger" depart="206.63">
        <route edges="-420319840#1 -420319840#0 -381452174#0 -381452104#0 -117914343#0 913009312#4 -420331825#4 -420331825#3 -420331825#2 -381447817#0 381447834#0"/>
    </vehicle>
    <vehicle id="81" type="passenger" depart="209.21">
        <route edges="420319840#1 -381452104#1 -381452104#0 -117914343#0"/>
    </vehicle>
    <vehicle id="82" type="passenger" depart="211.79">
        <route edges="420317540 420317543#0 420317543#1 244215552#1 520307306 913009311 1126339777#0 1126339777#1 -420331831 117914348#0 117914348#1 117914348#2 -381447818"/>
    </vehicle>
    <vehicle id="83" type="passenger" depart="214.37">
        <route edges="-117914343#0 913009312#4 -420331825#4 -381447833#1 420331827 -218773868#2 -218773868#1 -218773868#0"/>
    </vehicle>
    <vehicle id="84" type="passenger" depart="216.96">
        <route edges="218773868#1 218773868#2 218773868#3 -381447817#1 -381447817#0 -381447836#0 117914351#2 420331825#1"/>
    </vehicle>
    <vehicle id="85" type="passenger" depart="219.54">
        <route edges="913009311 1126339777#0 1126339777#1 -420331831 117914348#0 -381447834#0"/>
    </vehicle>
    <vehicle id="86" type="passenger" depart="222.12">
        <route edges="-913009312#2 -913009312#1 1126339777#0 1126339777#1 -420331831 -601902513#1 -601902513#0 420331825#4 381447829#0 420331831 -1126339777#1 -1126339777#0 913009312#1 913009312#2"/>
    </vehicle>
    <vehicle id="87" type="passenger" depart="224.70">
        <route edges="420331827 -218773868#2 -218773868#1 -218773868#0 -913009312#8 -913009312#7 -913009312#6 -913009312#5 -913009312#4 117914343#0 381452104#0 381452174#0 420319840#0"/>
    </vehicle>
    <vehicle id="88" type="passenger" depart="227.29">
        <route edges="-381452167 -117914352#0 -420317540"/>
    </vehicle>
    <vehicle id="89" type="passenger" depart="229.87">
        <route edges="-381447833#0 -218773868#1 -218773868#0 381452122#3 -381452175#2 -381452175#1"/>
    </vehicle>
    <vehicle id="90" type="passenger" depart="232.45">
        <route edges="-601902513#0 420331825#4 -381452132 420319848#0 420319848#1 381452175#0 381452175#1 381452175#2"/>
    </vehicle>
    <vehicle id="91" type="passenger" depart="235.04">
        <route edges="381447835#1 381447835#2 381447835#3 -913009312#5 -420331825#4 -420331825#3 -420331830 -381447836#2"/>
    </vehicle>
    <vehicle id="92" type="passenger" depart="237.62">
        <route edges="-381447836#2 381447817#0 381447817#1 -218773868#3 -218773868#2 -218773868#1 -218773868#0 -913009312#8 -913009312#7 -913009312#6"/>
    </vehicle>
    <vehicle id="93" type="passenger" depart="240.20">
        <route edges="420331830 420331825#3 420331825#4 -913009312#4 -913009312#3 -913009312#2 -913009312#1 -913009311 -913009313#1"/>
    </vehicle>
    <vehicle id="94" type="passenger" depart="242.78">
        <route edges="381452175#2 -381452122#3 913009312#9 381447835#0 381447835#1 381447835#2 381447835#3"/>
    </vehicle>
    <vehicle id="95" type="passenger" depart="245.37">
        <route edges="420331825#4 -913009312#4 -913009312#3 -913009312#2 -913009312#1 1126339777#0 1126339777#1"/>
    </vehicle>
    <vehicle id="96" type="passenger" depart="247.95">
        <route edges="-420331830 -381447836#2 381447817#0 381447817#1 -218773868#3 -218773868#2 -218773868#1 -218773868#0 -913009312#8 -913009312#7"/>
    </vehicle>
    <vehicle id="97" type="passenger" depart="250.53">
        <route edges="420317543#0 -420317544#0 381452167 381452174#1 -420319840#0 -381452167 117914352#1 -420317543#0"/>
    </vehicle>
    <vehicle id="98" type="passenger" depart="253.12">
        <route edges="-381452104#0 117914343#1 117914343#2 420319848#0"/>
    </vehicle>
    <vehicle id="99" type="passenger" depart="255.70">
        <route edges="1126339777#0 1126339777#1 -420331831 -381447829#0 913009312#5 913009312#6 913009312#7 913009312#8 913009312#9 218773868#1 381447833#0"/>
    </vehicle>
    <vehicle id="100" type="passenger" depart="258.28">
        <route edges="-381447836#0 -117914351#0 -117914348#1"/>
    </vehicle>
    <vehicle id="101" type="passenger" depart="260.86">
        <route edges="-381452122#3 -913009312#8 -913009312#7 -913009312#6 -913009312#5 -913009312#4 -913009312#3 -913009312#2"/>
    </vehicle>
    <vehicle id="102" type="passenger" depart="263.45">
        <route edges="-117914348#0 -381447829#0 -913009312#4 117914343#0 381452104#0 381452104#1 -420319840#1 -420319840#0 -381452167 -117914352#0 -420317540"/>
    </vehicle>
    <vehicle id="103" type="passenger" depart="266.03">
        <route edges="913009312#3 117914343#0 117914343#1 117914343#2 381452132 -913009312#4"/>
    </vehicle>
    <vehicle id="104" type="passenger" depart="268.61">
        <route edges="-1126339777#0 913009312#1 913009312#2 913009312#3 117914343#0 381452104#0 381452104#1 -420319840#1 -420319840#0 -381452167 -117914352#0 420317543#0"/>
    </vehicle>
    <vehicle id="105" type="passenger" depart="271.20">
        <route edges="-420317544#0 -117914352#0 420317543#0 420317543#1 244215552#1 520307306 913009311 1126339777#0 1126339777#1 -420331831 -601902513#1 -381447836#3"/>
    </vehicle>
    <vehicle id="106" type="passenger" depart="273.78">
        <route edges="381447833#0 420331827 -218773868#2 -218773868#1 381447835#0"/>
    </vehicle>
    <vehicle id="107" type="passenger" depart="276.36">
        <route edges="-420319848#0 -117914343#2 -117914343#1 381452104#0"/>
    </vehicle>
    <vehicle id="108" type="passenger" depart="278.94">
        <route edges="420331825#4 -381452132 -117914343#2 -117914343#1 -117914343#0 913009312#4 -420331825#4 -420331825#3 -420331825#2 -420331825#1 -420331825#0"/>
    </vehicle>
    <vehicle id="109" type="passenger" depart="281.53">
        <route edges="117914343#0 117914343#1 117914343#2 381452132 381447829#0 420331831 -1126339777#1 -1126339777#0"/>
    </vehicle>
    <vehicle id="110" type="passenger" depart="284.11">
        <route edges="244215552#1 520307306 913009311 913009312#1 913009312#2 913009312#3 117914343#0 381452104#0 381452104#1 -420319840#1 -420319840#0 -381452167 -117914352#0 420317543#0 -420317544#0"/>
    </vehicle>
    <vehicle id="111" type="passenger" depart="286.69">
        <route edges="381447835#0 381447835#1 381447835#2 381447835#3 913009312#6 913009312#7 913009312#8 381452122#3 -381452175#2 -381452175#1 381452160"/>
    </vehicle>
    <vehicle id="112" type="passenger" depart="289.28">
        <route edges="-420319848#2 -420319848#1 -420319848#0 381452132 913009312#5 913009312#6 913009312#7 913009312#8 913009312#9 381447835#0"/>
    </vehicle>
    <vehicle id="113" type="passenger" depart="291.86">
        <route edges="913009312#3 913009312#4 -420331825#4 -420331825#3 -420331830 -381447836#2"/>
    </vehicle>
    <vehicle id="114" type="passenger" depart="294.44">
        <route edges="420317543#0 420317543#1 244215552#1 -913009315"/>
    </vehicle>
    <vehicle id="115" type="passenger" depart="297.02">
        <route edges="913009312#3 913009312#4 -420331825#4 -381447833#1 420331827 -218773868#2 -218773868#1 -218773868#0"/>
    </vehicle>
    <vehicle id="116" type="passenger" depart="299.61">
        <route edges="-420331831 -601902513#1 -381447836#3 -381447836#2 -381447836#0"/>
    </vehicle>
    <vehicle id="117" type="passenger" depart="302.19">
        <route edges="-381452174#1 -381452174#0 -381452104#0 -117914343#0 913009312#4 -420331825#4 601902513#0 -381447836#3 420331830"/>
    </vehicle>
    <vehicle id="118" type="passenger" depart="304.77">
        <route edges="117914348#2 -381447818 381447836#0 381447836#2 381447836#3 -601902513#0 -420331825#3"/>
    </vehicle>
    <vehicle id="119" type="passenger" depart="307.35">
        <route edges="913009312#6 913009312#7 913009312#8 913009312#9 218773868#1 218773868#2 218773868#3 -381447817#1 -381447817#0 -381447836#0 381447818 -117914348#2"/>
    </vehicle>
    <vehicle id="120" type="passenger" depart="309.94">
        <route edges="-117914343#0 913009312#4 -381452132 -117914343#2 -117914343#1 381452104#0 381452104#1 -420319840#1 -420319840#0 -381452167 -117914352#0 420317543#0 -420317544#0 381452167"/>
    </vehicle>
    <vehicle id="121" type="passenger" depart="312.52">
        <route edges="117914352#1 -420317543#0 117914352#0 381452167 420319840#0 420319840#1"/>
    </vehicle>
    <vehicle id="122" type="passenger" depart="315.10">
        <route edges="117914343#0 117914343#1 117914343#2 381452132 381447829#0 420331831 -1126339777#1 -1126339777#0 913009312#1 913009312#2"/>
    </vehicle>
    <vehicle id="123" type="passenger" depart="317.69">
        <route edges="-420319848#1 -420319848#0 -117914343#2 -117914343#1 381452104#0 381452104#1 -420319840#1 -420319840#0 -381452167"/>
    </vehicle>
    <vehicle id="124" type="passenger" depart="320.27">
        <route edges="420331827 218773868#3 -381447817#1 -381447817#0 381447834#0 117914348#1 117914348#2"/>
    </vehicle>
    <vehicle id="125" type="passenger" depart="322.85">
        <route edges="-117914343#2 -117914343#1 -117914343#0 913009312#4 381447829#0 420331831 -1126339777#1"/>
    </vehicle>
    <vehicle id="126" type="passenger" depart="325.43">
        <route edges="-117914343#0 913009312#4 -381452132 -117914343#2 381452108#0"/>
    </vehicle>
    <vehicle id="127" type="passenger" depart="328.02">
        <route edges="381447833#1 601902513#0 601902513#1 117914348#0 117914348#1 117914348#2 -381447818"/>
    </vehicle>
    <vehicle id="128" type="passenger" depart="330.60">
        <route edges="420317543#0 -420317544#0 381452167 381452174#1"/>
    </vehicle>
    <vehicle id="129" type="passenger" depart="333.18">
        <route edges="381447831 -218773868#3 -420331827 -381447833#0 218773868#2"/>
    </vehicle>
    <vehicle id="130" type="passenger" depart="335.77">
        <route edges="-913009312#2 -913009312#1 1126339777#0 1126339777#1 -420331831 117914348#0 117914348#1 117914351#0 381447836#0"/>
    </vehicle>
    <vehicle id="131" type="passenger" depart="338.35">
        <route edges="-420335669 913009312#1 913009312#2 913009312#3 913009312#4 -420331825#4 601902513#0 601902513#1"/>
    </vehicle>
    <vehicle id="132" type="passenger" depart="340.93">