<?xml version="1.0" encoding="UTF-8"?>

<!-- generated on 2026-04-17 14:30:54.374021 by Eclipse SUMO randomTrips.py v1.26.0
<configuration>
    <net-file value="/Users/junlee/Desktop/2026-1/js/result/veh_sensitivity_short_cw3_20260417_143049/peak_x1p0_cw3_seed3_20min/sumo_nets/cw_71666/network.net.xml"/>
    <output-trip-file value="/Users/junlee/Desktop/2026-1/js/result/veh_sensitivity_short_cw3_20260417_143049/peak_x1p0_cw3_seed3_20min/sumo_nets/cw_71666/routes_seed42.trips.xml"/>
    <route-file value="/Users/junlee/Desktop/2026-1/js/result/veh_sensitivity_short_cw3_20260417_143049/peak_x1p0_cw3_seed3_20min/sumo_nets/cw_71666/routes_seed42.rou.xml"/>
    <vehicle-class value="passenger"/>
    <end value="1200.0"/>
    <period value="2.949543174332364"/>
</configuration>
-->

<!-- generated on 2026-04-17T14:30:54.356001+09:00 by Eclipse SUMO duarouter 1.26.0
<duarouterConfiguration xmlns:xsi="http://www.w3.org/2001/XMLSchema-instance" xsi:noNamespaceSchemaLocation="http://sumo.dlr.de/xsd/duarouterConfiguration.xsd">

    <input>
        <net-file value="/Users/junlee/Desktop/2026-1/js/result/veh_sensitivity_short_cw3_20260417_143049/peak_x1p0_cw3_seed3_20min/sumo_nets/cw_71666/network.net.xml"/>
        <route-files value="/Users/junlee/Desktop/2026-1/js/result/veh_sensitivity_short_cw3_20260417_143049/peak_x1p0_cw3_seed3_20min/sumo_nets/cw_71666/routes_seed42.trips.xml"/>
    </input>

    <output>
        <output-file value="/Users/junlee/Desktop/2026-1/js/result/veh_sensitivity_short_cw3_20260417_143049/peak_x1p0_cw3_seed3_20min/sumo_nets/cw_71666/routes_seed42.rou.xml"/>
        <alternatives-output value="NUL"/>
    </output>

    <time>
        <begin value="0.0"/>
        <end value="1200.0"/>
    </time>

    <report>
        <no-warnings value="true"/>
        <ignore-errors value="true"/>
        <no-step-log value="true"/>
    </report>

</duarouterConfiguration>
-->

<routes xmlns:xsi="http://www.w3.org/2001/XMLSchema-instance" xsi:noNamespaceSchemaLocation="http://sumo.dlr.de/xsd/routes_file.xsd">
    <vType id="passenger" vClass="passenger"/>
    <vehicle id="0" type="passenger" depart="0.00">
        <route edges="381447833#1 420331825#4 -381452132 -117914343#2 -117914343#1"/>
    </vehicle>
    <vehicle id="1" type="passenger" depart="2.95">
        <route edges="-381452175#1 -381452175#0 -420319848#1 -420319848#0 -117914343#2 -117914343#1 -117914343#0 913009312#4 -381452132"/>
    </vehicle>
    <vehicle id="2" type="passenger" depart="5.90">
        <route edges="381452122#3 -381452175#2 -381452175#1 -381452175#0 -420319848#1 -420319848#0 381452132 913009312#5 913009312#6 913009312#7 913009312#8 913009312#9 381447835#0 381447835#1 381447835#2"/>
    </vehicle>
    <vehicle id="3" type="passenger" depart="8.85">
        <route edges="420331830 -420331825#2 381447817#1 -218773868#3 -218773868#2"/>
    </vehicle>
    <vehicle id="4" type="passenger" depart="11.80">
        <route edges="-913009312#1 1126339777#0 1126339777#1 -420331831 -381447829#0 -381452132 -117914343#2"/>
    </vehicle>
    <vehicle id="5" type="passenger" depart="14.75">
        <route edges="-381452108#1 -381452108#0 117914343#2 381452132 -913009312#4 117914343#0 117914343#1"/>
    </vehicle>
    <vehicle id="6" type="passenger" depart="17.70">
        <route edges="381447834#0 117914348#1 117914351#0"/>
    </vehicle>
    <vehicle id="7" type="passenger" depart="20.65">
        <route edges="-381452108#1 -381452108#0 -117914343#1 -117914343#0 913009312#4 913009312#5 913009312#6 913009312#7 913009312#8 913009312#9 218773868#1 218773868#2 218773868#3"/>
    </vehicle>
    <vehicle id="8" type="passenger" depart="23.60">
        <route edges="420319840#0 420319840#1 -381452104#1 -381452104#0 -117914343#0 913009312#4 381447829#0 420331831 -1126339777#1 -1126339777#0"/>
    </vehicle>
    <vehicle id="9" type="passenger" depart="26.55">
        <route edges="420317543#1 244215552#1 520307306 913009311 1126339777#0 1126339777#1 -420331831 117914348#0 -381447834#0 381447836#2"/>
    </vehicle>
    <vehicle id="10" type="passenger" depart="29.50">
        <route edges="-420319848#2 -420319848#1 -420319848#0 381452132 381447829#0 117914348#0 -381447834#0"/>
    </vehicle>
    <vehicle id="11" type="passenger" depart="32.44">
        <route edges="913009312#5 913009312#6 913009312#7 913009312#8 381452122#3 -381452175#2 -381452175#1 -381452175#0 -420319848#1"/>
    </vehicle>
    <vehicle id="12" type="passenger" depart="35.39">
        <route edges="-218773868#2 381447833#0 381447833#1 -420331825#3 -420331825#2 381447817#1 -218773868#3"/>
    </vehicle>
    <vehicle id="13" type="passenger" depart="38.34">
        <route edges="420319848#1 381452175#0 381452175#1 381452175#2 -381452122#3 -913009312#8 -913009312#7 -913009312#6 -913009312#5 -913009312#4 117914343#0 381452104#0 381452104#1 -420319840#1 -420319840#0 -381452167 117914352#1 420317543#1 244215552#1"/>
    </vehicle>
    <vehicle id="14" type="passenger" depart="41.29">
        <route edges="420317543#1 244215552#1 520307306 913009311 913009312#1 913009312#2 913009312#3 117914343#0 117914343#1 381452108#0"/>
    </vehicle>
    <vehicle id="15" type="passenger" depart="44.24">
        <route edges="117914351#0 117914351#2 420331825#1 420331825#2 420331825#3 420331825#4 913009312#5 913009312#6"/>
    </vehicle>
    <vehicle id="16" type="passenger" depart="47.19">
        <route edges="-420331830 -381447836#2 -381447836#0 117914351#2"/>
    </vehicle>
    <vehicle id="17" type="passenger" depart="50.14">
        <route edges="420319847 381452175#2 -381452122#3 -913009312#8 -913009312#7 -913009312#6 -913009312#5 -420331825#4 -420331825#3 -420331825#2 381447817#1"/>
    </vehicle>
    <vehicle id="18" type="passenger" depart="53.09">
        <route edges="420331825#1 420331825#2 420331825#3 420331825#4 913009312#5 913009312#6 913009312#7 913009312#8 913009312#9 218773868#1 218773868#2"/>
    </vehicle>
    <vehicle id="19" type="passenger" depart="56.04">
        <route edges="381452104#1 -420319840#1 -420319840#0 -381452174#0 -381452104#0 -117914343#0 913009312#4 -420331825#4 -420331825#3 -420331830 -381447836#2 -381447836#0 -117914351#0 -117914348#1"/>
    </vehicle>
    <vehicle id="20" type="passenger" depart="58.99">
        <route edges="-218773868#0 -913009312#8 -913009312#7 -913009312#6 -913009312#5 -381452132 -381452172"/>
    </vehicle>
    <vehicle id="21" type="passenger" depart="61.94">
        <route edges="-218773868#3 -218773868#2 -218773868#1 -218773868#0 -913009312#8 -913009312#7 -913009312#6 -913009312#5 -913009312#4 117914343#0 381452104#0 381452104#1 -420319840#1 -420319840#0 -381452167 -117914352#0 -420317540"/>
    </vehicle>
    <vehicle id="22" type="passenger" depart="64.89">
        <route edges="381447833#0 420331827 -218773868#2 -218773868#1 -218773868#0 -913009312#8 -913009312#7 -913009312#6 -913009312#5 -420331825#4"/>
    </vehicle>
    <vehicle id="23" type="passenger" depart="67.84">
        <route edges="-420331827 381447833#1 420331825#4 -381452132 420319848#0 -381452110"/>
    </vehicle>
    <vehicle id="24" type="passenger" depart="70.79">
        <route edges="-381452175#0 -420319848#1 -420319848#0 381452132 381447829#0 420331831 -1126339777#1 -1126339777#0 913009312#1"/>
    </vehicle>
    <vehicle id="25" type="passenger" depart="73.74">
        <route edges="381447834#0 -117914348#0 -381447829#0 -913009312#4 117914343#0 381452104#0 381452104#1 -420319840#1 -420319840#0 -381452167 117914352#1 420317543#1 244215552#1"/>
    </vehicle>
    <vehicle id="26" type="passenger" depart="76.69">
        <route edges="-381447836#0 -117914351#0 -117914348#1 -117914348#0 -381447829#0 -913009312#4 117914343#0 117914343#1 381452108#0"/>
    </vehicle>
    <vehicle id="27" type="passenger" depart="79.64">
        <route edges="-381447834#0 381447817#0 420331825#2 -420331830"/>
    </vehicle>
    <vehicle id="28" type="passenger" depart="82.59">
        <route edges="913009313#1 913009311 913009312#1 913009312#2 913009312#3 913009312#4 913009312#5 913009312#6 913009312#7 913009312#8 913009312#9 218773868#1 381447833#0"/>
    </vehicle>
    <vehicle id="29" type="passenger" depart="85.54">
        <route edges="117914352#1 420317543#1 244215552#1 520307306 913009311 913009312#1 913009312#2 913009312#3 913009312#4 913009312#5 913009312#6 913009312#7 913009312#8 913009312#9 381447835#0 381447835#1 381447835#2 381447835#3"/>
    </vehicle>
    <vehicle id="30" type="passenger" depart="88.49">
        <route edges="420319848#1 381452175#0 381452175#1 381452175#2 -381452122#3 -913009312#8 -913009312#7 -913009312#6 -913009312#5 -913009312#4 117914343#0 381452104#0 381452174#0 381452174#1"/>
    </vehicle>
    <vehicle id="31" type="passenger" depart="91.44">
        <route edges="-381452122#3 -913009312#8 -913009312#7 -913009312#6 -913009312#5 -381452132 -117914343#2"/>
    </vehicle>
    <vehicle id="32" type="passenger" depart="94.39">
        <route edges="-420319840#0 -381452174#0 -381452104#0 -117914343#0 913009312#4 913009312#5 913009312#6 913009312#7 913009312#8 381452122#3 -381452175#2"/>
    </vehicle>
    <vehicle id="33" type="passenger" depart="97.33">
        <route edges="-381452108#0 -117914343#1 -117914343#0 913009312#4 381447829#0 420331831 -1126339777#1 -1126339777#0 913009312#1 913009312#2"/>
    </vehicle>
    <vehicle id="34" type="passenger" depart="100.28">
        <route edges="420331825#4 913009312#5 913009312#6 913009312#7 913009312#8 381452122#3 -420319844"/>
    </vehicle>
    <vehicle id="35" type="passenger" depart="103.23">
        <route edges="381447835#0 381447835#1 381447835#2 381447835#3 -913009312#5 -913009312#4 -913009312#3 -913009312#2 -913009312#1 -913009311 -520307306"/>
    </vehicle>
    <vehicle id="36" type="passenger" depart="106.18">
        <route edges="601902513#1 -381447829#0 -420331825#4 -381447833#1 420331827 -218773868#2 -218773868#1 -218773868#0 -913009312#8 -913009312#7"/>
    </vehicle>
    <vehicle id="37" type="passenger" depart="109.13">
        <route edges="-381452175#0 -420319848#1 -420319848#0 -117914343#2 -117914343#1 381452104#0 381452104#1 -420319840#1 -381452174#1"/>
    </vehicle>
    <vehicle id="38" type="passenger" depart="112.08">
        <route edges="218773868#1 381447833#0 420331827 -218773868#2 -218773868#1 -218773868#0 381452122#3 -381452175#2 -381452175#1"/>
    </vehicle>
    <vehicle id="39" type="passenger" depart="115.03">
        <route edges="244215552#0 244215552#1 520307306 913009311 913009312#1 913009312#2 913009312#3 913009312#4 381447829#0 420331831"/>
    </vehicle>
    <vehicle id="40" type="passenger" depart="117.98">
        <route edges="913009315 520307306 913009311 913009312#1 913009312#2 913009312#3 117914343#0 117914343#1"/>
    </vehicle>
    <vehicle id="41" type="passenger" depart="120.93">
        <route edges="-218773868#1 -218773868#0 -913009312#8 -913009312#7 -913009312#6 -913009312#5 -420331825#4 -420331825#3 -420331830 -381447836#2 -381447836#0 381447818 -117914348#2"/>
    </vehicle>
    <vehicle id="42" type="passenger" depart="123.88">
        <route edges="-218773868#4 -381447817#1 -381447817#0 -381447836#0 381447818"/>
    </vehicle>
    <vehicle id="43" type="passenger" depart="126.83">
        <route edges="420317540 117914352#0 381452167 420319840#0 420319840#1 -381452104#1 -381452104#0 -117914343#0 -913009312#3 -913009312#2 -913009312#1"/>
    </vehicle>
    <vehicle id="44" type="passenger" depart="129.78">
        <route edges="-117914351#0 -117914348#1 -381447834#0 381447817#0 420331825#2 -420331830"/>
    </vehicle>
    <vehicle id="45" type="passenger" depart="132.73">
        <route edges="913009315 520307306 913009311 1126339777#0 1126339777#1 -420331831 117914348#0 117914348#1"/>
    </vehicle>
    <vehicle id="46" type="passenger" depart="135.68">
        <route edges="913009312#7 913009312#8 913009312#9 218773868#1 218773868#2 218773868#3 -381447817#1 -381447817#0 -381447836#0 117914351#2 420331825#1"/>
    </vehicle>
    <vehicle id="47" type="passenger" depart="138.63">
        <route edges="-1126339777#1 -1126339777#0 913009312#1 913009312#2 913009312#3 117914343#0 381452104#0 381452104#1"/>
    </vehicle>
    <vehicle id="48" type="passenger" depart="141.58">
        <route edges="381447836#0 381447834#0 117914348#1 117914348#2 117914348#3"/>
    </vehicle>
    <vehicle id="49" type="passenger" depart="144.53">
        <route edges="-381452175#0 -420319848#1 -420319848#0 381452132 913009312#5 913009312#6 913009312#7 913009312#8 913009312#9 218773868#1 381447833#0"/>
    </vehicle>
    <vehicle id="50" type="passenger" depart="147.48">
        <route edges="-218773868#4 -218773868#3 -218773868#2 -218773868#1 -218773868#0 -913009312#8 -913009312#7 -913009312#6 -913009312#5 -913009312#4 -913009312#3"/>
    </vehicle>
    <vehicle id="51" type="passenger" depart="150.43">
        <route edges="-913009312#5 -381452132 -117914343#2 -117914343#1 -117914343#0 913009312#4"/>
    </vehicle>
    <vehicle id="52" type="passenger" depart="153.38">
        <route edges="420331825#4 913009312#5 913009312#6 913009312#7 913009312#8 381452122#3 -381452175#2 -381452175#1"/>
    </vehicle>
    <vehicle id="53" type="passenger" depart="156.33">
        <route edges="117914343#1 117914343#2 381452132 -420331825#4 601902513#0 -381447836#3"/>
    </vehicle>
    <vehicle id="54" type="passenger" depart="159.28">
        <route edges="601902513#0 -381447836#3 420331830 420331825#3"/>
    </vehicle>
    <vehicle id="55" type="passenger" depart="162.22">
        <route edges="-420317544#0 381452167 420319840#0 420319840#1 -381452104#1 -381452104#0 -117914343#0 913009312#4 913009312#5 913009312#6 913009312#7 913009312#8 913009312#9 218773868#1 381447833#0"/>
    </vehicle>
    <vehicle id="56" type="passenger" depart="165.17">
        <route edges="381447818 -117914348#2 -117914348#1 -381447834#0"/>
    </vehicle>
    <vehicle id="57" type="passenger" depart="168.12">
        <route edges="381452174#0 420319840#0 420319840#1 -381452104#1 -381452104#0 -117914343#0 913009312#4 381447829#0 117914348#0 117914348#1 117914348#2 117914348#3"/>
    </vehicle>
    <vehicle id="58" type="passenger" depart="171.07">
        <route edges="381452175#1 381452175#2 -381452122#3 -913009312#8 -913009312#7 -913009312#6 -913009312#5 381447829#0 117914348#0 117914348#1 117914348#2"/>
    </vehicle>
    <vehicle id="59" type="passenger" depart="174.02">
        <route edges="-1126339777#0 913009312#1 913009312#2 913009312#3 913009312#4 913009312#5 913009312#6 913009312#7 913009312#8 381452122#3 -381452175#2 -420319847"/>
    </vehicle>
    <vehicle id="60" type="passenger" depart="176.97">
        <route edges="-117914343#0 913009312#4 -381452132 -117914343#2 -117914343#1 381452104#0 381452104#1 -420319840#1 -420319840#0 -381452167 117914352#1 420317543#1 244215552#1 520307306 913009311"/>
    </vehicle>
    <vehicle id="61" type="passenger" depart="179.92">
        <route edges="420331825#4 -913009312#4 117914343#0 381452104#0 381452174#0 420319840#0 420319840#1"/>
    </vehicle>
    <vehicle id="62" type="passenger" depart="182.87">
        <route edges="-420317544#1 420317543#1 244215552#1 520307306 913009311 1126339777#0 1126339777#1 -420331831 -601902513#1 -381447836#3 -381447836#2 -381447836#0 -117914351#0"/>
    </vehicle>
    <vehicle id="63" type="passenger" depart="185.82">
        <route edges="420331825#4 381447829#0 420331831 -1126339777#1 -1126339777#0 913009312#1 913009312#2"/>
    </vehicle>
    <vehicle id="64" type="passenger" depart="188.77">
        <route edges="-218773868#1 -218773868#0 -913009312#8 -913009312#7 -913009312#6 -913009312#5 -913009312#4 -913009312#3 -913009312#2 -913009312#1 1126339777#0"/>
    </vehicle>
    <vehicle id="65" type="passenger" depart="191.72">
        <route edges="-117914351#2 -117914351#0 -117914348#1 -117914348#0 -381447829#0 913009312#5 913009312#6 913009312#7 913009312#8 381452122#3 -381452175#2 -381452175#1 381452160"/>
    </vehicle>
    <vehicle id="66" type="passenger" depart="194.67">
        <route edges="381452174#1 420319840#1 -381452104#1 -381452104#0 -117914343#0 -913009312#3 -913009312#2 -913009312#1 1126339777#0 1126339777#1 -420331831 -381447829#0"/>
    </vehicle>
    <vehicle id="67" type="passenger" depart="197.62">
        <route edges="-381452175#0 -420319848#1 -420319848#0 381452132 -420331825#4 601902513#0 -381447836#3 420331830 420331825#3"/>
    </vehicle>
    <vehicle id="68" type="passenger" depart="200.57">
        <route edges="-913009312#1 1126339777#0 1126339777#1 -420331831 -381447829#0 -381452132 420319848#0 -381452110"/>
    </vehicle>
    <vehicle id="69" type="passenger" depart="203.52">
        <route edges="117914351#0 117914351#2 420331825#1 420331825#2 420331825#3 420331825#4 -913009312#4 117914343#0 117914343#1 381452108#0"/>
    </vehicle>
    <vehicle id="70" type="passenger" depart="206.47">
        <route edges="-381452104#1 -381452104#0 -117914343#0 913009312#4 913009312#5 913009312#6 913009312#7 913009312#8 381452122#3 -420319844"/>
    </vehicle>
    <vehicle id="71" type="passenger" depart="209.42">
        <route edges="913009315 520307306 913009311 1126339777#0 1126339777#1 -420331831 -601902513#1 -381447836#3 -381447836#2 381447834#0"/>
    </vehicle>
    <vehicle id="72" type="passenger" depart="212.37">
        <route edges="-913009312#3 -913009312#2 -913009312#1 1126339777#0 1126339777#1 -420331831 117914348#0"/>
    </vehicle>
    <vehicle id="73" type="passenger" depart="215.32">
        <route edges="-381447817#0 381447836#2 381447836#3 -601902513#0 420331825#4 -381452132"/>
    </vehicle>
    <vehicle id="74" type="passenger" depart="218.27">
        <route edges="-420319848#2 -420319848#1 -420319848#0 381452132 913009312#5 913009312#6 913009312#7 913009312#8 913009312#9 218773868#1 218773868#2 218773868#3"/>
    </vehicle>
    <vehicle id="75" type="passenger" depart="221.22">
        <route edges="-381452122#3 -913009312#8 -913009312#7 -913009312#6 -913009312#5 -381452132"/>
    </vehicle>
    <vehicle id="76" type="passenger" depart="224.17">
        <route edges="-117914351#2 381447836#0 381447836#2 381447836#3 -601902513#0 420331825#4 381447829#0"/>
    </vehicle>
    <vehicle id="77" type="passenger" depart="227.11">
        <route edges="-381452122#3 -913009312#8 -913009312#7 -913009312#6 -913009312#5 -913009312#4 -913009312#3 -913009312#2 -913009312#1 420335669"/>
    </vehicle>
    <vehicle id="78" type="passenger" depart="230.06">
        <route edges="420331825#1 420331825#2 420331825#3 420331825#4 -913009312#4 117914343#0 381452104#0 381452104#1 -420319840#1 -420319840#0 -381452167 -117914352#0"/>
    </vehicle>
    <vehicle id="79" type="passenger" depart="233.01">
        <route edges="-381452160 381452175#1 381452175#2 -381452122#3 913009312#9 381447835#0 381447835#1"/>
    </vehicle>
    <vehicle id="80" type="passenger" depart="235.96">
        <route edges="-381452108#0 -117914343#1 -117914343#0 -913009312#3 -913009312#2 -913009312#1 1126339777#0 1126339777#1 -420331831 -381447829#0"/>
    </vehicle>
    <vehicle id="81" type="passenger" depart="238.91">
        <route edges="913009312#2 913009312#3 913009312#4 913009312#5 913009312#6 913009312#7 913009312#8 913009312#9 218773868#1"/>
    </vehicle>
    <vehicle id="82" type="passenger" depart="241.86">
        <route edges="-913009312#8 -913009312#7 -913009312#6 -913009312#5 -381452132 420319848#0 420319848#1 381452175#0"/>
    </vehicle>
    <vehicle id="83" type="passenger" depart="244.81">
        <route edges="420317543#1 244215552#1 520307306 913009311 913009312#1 913009312#2 913009312#3 117914343#0 381452104#0 381452174#0 420319840#0 420319840#1 -381452104#1"/>
    </vehicle>
    <vehicle id="84" type="passenger" depart="247.76">
        <route edges="-218773868#2 -218773868#1 -218773868#0 -913009312#8 -913009312#7 -913009312#6 -913009312#5 -913009312#4 -913009312#3"/>
    </vehicle>
    <vehicle id="85" type="passenger" depart="250.71">
        <route edges="-913009312#1 1126339777#0 1126339777#1 -420331831 -601902513#1 -601902513#0 -381447833#1 420331827 -218773868#2 -218773868#1 -218773868#0 -913009312#8"/>
    </vehicle>
    <vehicle id="86" type="passenger" depart="253.66">
        <route edges="381452110 -420319848#0 381452132 913009312#5 913009312#6 913009312#7 913009312#8 913009312#9 381447835#0 381447835#1"/>
    </vehicle>
    <vehicle id="87" type="passenger" depart="256.61">
        <route edges="913009312#9 218773868#1 218773868#2 -420331827 381447833#1 -420331825#3 -420331825#2 381447817#1 -218773868#3"/>
    </vehicle>
    <vehicle id="88" type="passenger" depart="259.56">
        <route edges="-601902513#0 -420331825#3 -420331825#2 -420331825#1 -420331825#0"/>
    </vehicle>
    <vehicle id="89" type="passenger" depart="262.51">
        <route edges="420331825#1 420331825#2 420331825#3 420331825#4 -913009312#4 117914343#0 381452104#0 381452104#1 -420319840#1 -381452174#1"/>
    </vehicle>
    <vehicle id="90" type="passenger" depart="265.46">
        <route edges="-381447836#3 -381447836#2 381447817#0 381447817#1 -218773868#3 -218773868#2 -218773868#1 -218773868#0 -913009312#8 -913009312#7 -913009312#6 -913009312#5"/>
    </vehicle>
    <vehicle id="91" type="passenger" depart="268.41">
        <route edges="-913009312#1 1126339777#0 1126339777#1 -420331831 -381447829#0 -913009312#4 117914343#0 381452104#0 381452104#1 -420319840#1 -420319840#0 -381452167 117914352#1 -420317543#0"/>
    </vehicle>
    <vehicle id="92" type="passenger" depart="271.36">
        <route edges="-381452167 117914352#1 420317543#1 244215552#1 520307306 913009311 913009312#1 913009312#2 913009312#3 913009312#4 -420331825#4 601902513#0 601902513#1"/>
    </vehicle>
    <vehicle id="93" type="passenger" depart="274.31">
        <route edges="-913009312#4 -913009312#3 -913009312#2 -913009312#1 1126339777#0 1126339777#1 -420331831 -601902513#1 -381447836#3 -381447836#2 381447817#0 420331825#2"/>
    </vehicle>
    <vehicle id="94" type="passenger" depart="277.26">
        <route edges="117914352#0 117914352#1 420317543#1 244215552#1 520307306 913009311 1126339777#0 1126339777#1 -420331831 -601902513#1 -381447836#3 -381447836#2 -381447836#0 381447818 -117914348#2"/>
    </vehicle>
    <vehicle id="95" type="passenger" depart="280.21">
        <route edges="913009315 520307306 913009311 913009312#1 913009312#2 913009312#3 117914343#0 117914343#1 117914343#2 420319848#0"/>
    </vehicle>
    <vehicle id="96" type="passenger" depart="283.16">
        <route edges="913009312#7 913009312#8 913009312#9 218773868#1 218773868#2 -420331827 381447833#1 601902513#0 601902513#1"/>
    </vehicle>
    <vehicle id="97" type="passenger" depart="286.11">
        <route edges="420331825#0 420331825#1 420331825#2 -420331830 -381447836#2"/>
    </vehicle>
    <vehicle id="98" type="passenger" depart="289.06">
        <route edges="1126339777#0 1126339777#1 -420331831 -381447829#0 -381452132 420319848#0 420319848#1 381452175#0 381452175#1 381452175#2 -381452122#3"/>
    </vehicle>
    <vehicle id="99" type="passenger" depart="292.00">
        <route edges="-420331830 381447836#3 -601902513#0 420331825#4 913009312#5 913009312#6 913009312#7 913009312#8"/>
    </vehicle>
    <vehicle id="100" type="passenger" depart="294.95">
        <route edges="-381452175#0 -420319848#1 -420319848#0 -117914343#2 -117914343#1 -117914343#0 913009312#4 -381452132 420319848#0 420319848#1 381452175#0"/>
    </vehicle>
    <vehicle id="101" type="passenger" depart="297.90">
        <route edges="-913009312#6 -913009312#5 -913009312#4 -913009312#3 -913009312#2 -913009312#1"/>
    </vehicle>
    <vehicle id="102" type="passenger" depart="300.85">
        <route edges="117914352#1 -420317543#0 117914352#0 381452167 -381452174#0 381452104#1"/>
    </vehicle>
    <vehicle id="103" type="passenger" depart="303.80">
        <route edges="-381447833#1 420331827 -218773868#2 -218773868#1 -218773868#0 -913009312#8 -913009312#7 -913009312#6 -913009312#5 -913009312#4 117914343#0 381452104#0 381452104#1 -420319840#1 -420319840#0 -381452167 -117914352#0 420317543#0 -420317544#0"/>
    </vehicle>
    <vehicle id="104" type="passenger" depart="306.75">
        <route edges="913009312#7 913009312#8 913009312#9 218773868#1 218773868#2"/>
    </vehicle>
    <vehicle id="105" type="passenger" depart="309.70">
        <route edges="117914351#2 420331825#1 420331825#2 420331825#3 420331825#4 913009312#5 913009312#6 913009312#7 913009312#8 381452122#3"/>
    </vehicle>
    <vehicle id="106" type="passenger" depart="312.65">
        <route edges="-117914348#3 -117914348#2 -117914348#1 -117914348#0 -381447829#0 913009312#5 913009312#6 913009312#7 913009312#8 913009312#9 218773868#1 218773868#2 218773868#3"/>
    </vehicle>
    <vehicle id="107" type="passenger" depart="315.60">
        <route edges="117914343#1 117914343#2 420319848#0 420319848#1 420319848#2"/>
    </vehicle>
    <vehicle id="108" type="passenger" depart="318.55">
        <route edges="-381447833#1 420331827 -218773868#2 381447833#0 381447833#1 420331825#4 913009312#5"/>
    </vehicle>
    <vehicle id="109" type="passenger" depart="321.50">
        <route edges="-218773868#0 -913009312#8 -913009312#7 -913009312#6 -913009312#5 -913009312#4 117914343#0 381452104#0 381452174#0 420319840#0 420319840#1 -381452104#1"/>
    </vehicle>
    <vehicle id="110" type="passenger" depart="324.45">
        <route edges="381447817#0 381447817#1 -218773868#3 -218773868#2 -218773868#1 381447835#0 381447835#1"/>
    </vehicle>
    <vehicle id="111" type="passenger" depart="327.40">
        <route edges="-381452132 -117914343#2 -117914343#1 -117914343#0 -913009312#3 -913009312#2 -913009312#1 -913009311 -913009313#1 -381447827"/>
    </vehicle>
    <vehicle id="112" type="passenger" depart="330.35">
        <route edges="420331830 420331825#3 420331825#4 -913009312#4 117914343#0 381452104#0 381452104#1 -420319840#1 -381452174#1"/>
    </vehicle>
    <vehicle id="113" type="passenger" depart="333.30">
        <route edges="381447817#0 381447817#1"/>
    </vehicle>
    <vehicle id="114" type="passenger" depart="336.25">
        <route edges="117914348#1 117914351#0 381447836#0 381447836#2 381447836#3 601902513#1 420331831 -1126339777#1 -1126339777#0 913009312#1"/>
    </vehicle>
    <vehicle id="115" type="passenger" depart="339.20">
        <route edges="-381452104#2 -420319840#1 -420319840#0 -381452174#0 381452104#1"/>
    </vehicle>
    <vehicle id="116" type="passenger" depart="342.15">
        <route edges="-381452160 381452175#1 381452175#2 -381452122#3 -913009312#8 -913009312#7 -913009312#6 -913009312#5 -913009312#4 -913009312#3 -913009312#2 -913009312#1 -913009311 -520307306"/>
    </vehicle>
    <vehicle id="117" type="passenger" depart="345.10">
        <route edges="381447835#3 -913009312#5 -913009312#4 117914343#0 381452104#0 381452104#1 -420319840#1 -420319840#0"/>
    </vehicle>
    <vehicle id="118" type="passenger" depart="348.05">
        <route edges="-420319840#1 -420319840#0 -381452174#0 -381452104#0 117914343#1 117914343#2 381452132"/>
    </vehicle>
    <vehicle id="119" type="passenger" depart="351.00">
        <route edges="-117914352#0 420317543#0 420317543#1 244215552#1 520307306 913009311 913009312#1 913009312#2 913009312#3 913009312#4 -420331825#4 -381447833#1 420331827 -218773868#2 -218773868#1 -218773868#0 -913009312#8 -913009312#7"/>
    </vehicle>
    <vehicle id="120" type="passenger" depart="353.95">
        <route edges="-117914352#0 420317543#0 420317543#1 244215552#1 520307306 913009311 913009312#1 913009312#2 913009312#3 117914343#0 117914343#1 117914343#2 420319848#0 420319848#1 381452175#0 381452175#1 381452175#2 -381452122#3"/>
    </vehicle>
    <vehicle id="121" type="passenger" depart="356.89">
        <route edges="-381452175#0 -420319848#1 -420319848#0 -117914343#2 -117914343#1 381452104#0 381452104#1 -420319840#1 -420319840#0 -381452167 117914352#1 420317543#1 244215552#1 520307306 913009311"/>
    </vehicle>
    <vehicle id="122" type="passenger" depart="359.84">
        <route edges="420331825#4"/>
    </vehicle>
    <vehicle id="123" type="passenger" depart="362.79">
        <route edges="-420331827 381447833#1 601902513#0 601902513#1 117914348#0 -381447834#0"/>
    </vehicle>
    <vehicle id="124" type="passenger" depart="365.74">
        <route edges="420319847 381452175#2 -381452122#3 -913009312#8 -913009312#7 -913009312#6 -913009312#5 -420331825#4 -420331825#3 -420331830 381447836#3"/>
    </vehicle>
    <vehicle id="125" type="passenger" depart="368.69">
        <route edges="381447818 -117914348#2 -117914348#1 -117914348#0 -381447829#0 913009312#5 913009312#6 913009312#7 913009312#8 913009312#9"/>
    </vehicle>
    <vehicle id="126" type="passenger" depart="371.64">
        <route edges="381447835#0 381447835#1 381447835#2 381447835#3 -913009312#5 381447829#0 420331831 -1126339777#1"/>
    </vehicle>
    <vehicle id="127" type="passenger" depart="374.59">
        <route edges="420319840#1 -381452104#1 381452174#0 381452174#1 -420319840#0"/>
    </vehicle>
    <vehicle id="128" type="passenger" depart="377.54">
        <route edges="381447835#1 381447835#2 381447835#3 -913009312#5 381447829#0 420331831 -1126339777#1 -1126339777#0 913009312#1"/>
    </vehicle>
    <vehicle id="129" type="passenger" depart="380.49">
        <route edges="-381447818"/>
    </vehicle>
    <vehicle id="130" type="passenger" depart="383.44">
        <route edges="-218773868#4 -381447817#1 -381447817#0 -381447836#0 117914351#2"/>
    </vehicle>
    <vehicle id="131" type="passenger" depart="386.39">
        <route edges="-381452175#1 -381452175#0 -420319848#1 -420319848#0 -117914343#2 -117914343#1 381452104#0 381452104#1 -420319840#1 -420319840#0 -381452167 117914352#1 420317543#1 244215552#1"/>
    </vehicle>
    <vehicle id="132" type="passenger" depart="389.34">