<?xml version="1.0" encoding="UTF-8"?>

<!-- generated on 2026-04-17 02:51:50.560030 by Eclipse SUMO randomTrips.py v1.26.0
<configuration>
    <net-file value="/Users/junlee/Desktop/2026-1/js/result/tradeoff_pet_top12_seed12_60min_20260417_024953/sumo_nets/cw_6428/network.net.xml"/>
    <output-trip-file value="/Users/junlee/Desktop/2026-1/js/result/tradeoff_pet_top12_seed12_60min_20260417_024953/sumo_nets/cw_6428/routes_seed51.trips.xml"/>
    <route-file value="/Users/junlee/Desktop/2026-1/js/result/tradeoff_pet_top12_seed12_60min_20260417_024953/sumo_nets/cw_6428/routes_seed51.rou.xml"/>
    <vehicle-class value="passenger"/>
    <seed value="51"/>
    <period value="3.666562810614806"/>
</configuration>
-->

<!-- generated on 2026-04-17T02:51:50.540074+09:00 by Eclipse SUMO duarouter 1.26.0
<duarouterConfiguration xmlns:xsi="http://www.w3.org/2001/XMLSchema-instance" xsi:noNamespaceSchemaLocation="http://sumo.dlr.de/xsd/duarouterConfiguration.xsd">

    <input>
        <net-file value="/Users/junlee/Desktop/2026-1/js/result/tradeoff_pet_top12_seed12_60min_20260417_024953/sumo_nets/cw_6428/network.net.xml"/>
        <route-files value="/Users/junlee/Desktop/2026-1/js/result/tradeoff_pet_top12_seed12_60min_20260417_024953/sumo_nets/cw_6428/routes_seed51.trips.xml"/>
    </input>

    <output>
        <output-file value="/Users/junlee/Desktop/2026-1/js/result/tradeoff_pet_top12_seed12_60min_20260417_024953/sumo_nets/cw_6428/routes_seed51.rou.xml"/>
        <alternatives-output value="NUL"/>
    </output>

    <time>
        <begin value="0.0"/>
        <end value="3600.0"/>
    </time>

    <report>
        <no-warnings value="true"/>
        <ignore-errors value="true"/>
        <no-step-log value="true"/>
    </report>

</duarouterConfiguration>
-->

<routes xmlns:xsi="http://www.w3.org/2001/XMLSchema-instance" xsi:noNamespaceSchemaLocation="http://sumo.dlr.de/xsd/routes_file.xsd">
    <vType id="passenger" vClass="passenger"/>
    <vehicle id="0" type="passenger" depart="0.00">
        <route edges="-464459667 315658896#4 464459665 315658900#4 315658900#5 -464459668#2 -464459668#1 -464459668#0 243542154#2"/>
    </vehicle>
    <vehicle id="1" type="passenger" depart="3.67">
        <route edges="-315658900#5 -315658900#4 -315658900#3 -464459667 315658896#4 464459665"/>
    </vehicle>
    <vehicle id="2" type="passenger" depart="7.33">
        <route edges="1339697074#1 379943751"/>
    </vehicle>
    <vehicle id="3" type="passenger" depart="11.00">
        <route edges="243542154#0 243542154#1 464459668#0"/>
    </vehicle>
    <vehicle id="4" type="passenger" depart="14.67">
        <route edges="464459668#0 464459668#1 464459668#2 -315658900#5 -315658900#4 -315658900#3 -464459667 315658896#4 464459665"/>
    </vehicle>
    <vehicle id="5" type="passenger" depart="18.33">
        <route edges="315658900#2 315658900#3 315658900#4 315658900#5 -464459668#2 -464459668#1 -464459668#0 -243542154#1 464461045 318747850#1 -243542154#2 464459668#0 464459668#1 464459668#2 -315658900#5"/>
    </vehicle>
    <vehicle id="6" type="passenger" depart="22.00">
        <route edges="243542154#1 464459668#0 464459668#1 464459668#2 -315658900#5 -315658900#4 -315658900#3 -315658900#2 -315658900#1"/>
    </vehicle>
    <vehicle id="7" type="passenger" depart="25.67">
        <route edges="464459668#0"/>
    </vehicle>
    <vehicle id="8" type="passenger" depart="29.33">
        <route edges="-315658896#4 464459667 315658900#3 315658900#4 315658900#5 -464459668#2 -464459668#1 -464459668#0 -243542154#1 464461045 318747850#1 -243542154#2 464459668#0 464459668#1 464459668#2 -315658900#5 -315658900#4 -315658900#3 -464459667 315658896#4"/>
    </vehicle>
    <vehicle id="9" type="passenger" depart="33.00">
        <route edges="464459668#2 -315658900#5 -315658900#4 -464459665 -315658896#4 -315658896#3 -315658896#2 -315658896#1 -318747848#1"/>
    </vehicle>
    <vehicle id="10" type="passenger" depart="36.67">
        <route edges="315658896#3 315658896#4 315658896#5"/>
    </vehicle>
    <vehicle id="11" type="passenger" depart="40.33">
        <route edges="-243542154#1 464461045 318747850#1 -243542154#2 464459668#0 464459668#1 464459668#2 -315658900#5 -315658900#4 -464459665 -315658896#4 464459667 315658900#3 315658900#4 315658900#5"/>
    </vehicle>
    <vehicle id="12" type="passenger" depart="44.00">
        <route edges="318747848#1 315658896#1 315658896#2 315658896#3 315658896#4 464459665 315658900#4 315658900#5 -464459668#2 -464459668#1 -464459668#0 -243542154#1 464461045 318747850#1"/>
    </vehicle>
    <vehicle id="13" type="passenger" depart="47.67">
        <route edges="315658900#0 315658900#1 315658900#2 315658900#3 315658900#4 315658900#5 -464459668#2 -464459668#1 -464459668#0 243542154#2"/>
    </vehicle>
    <vehicle id="14" type="passenger" depart="51.33">
        <route edges="318747850#1 -243542154#2 464459668#0 464459668#1 464459668#2 -315658900#5 -315658900#4 -464459665 -315658896#4 464459667 315658900#3 315658900#4 315658900#5"/>
    </vehicle>
    <vehicle id="15" type="passenger" depart="55.00">
        <route edges="775222468#1 775222468#2 379943747"/>
    </vehicle>
    <vehicle id="16" type="passenger" depart="58.67">
        <route edges="315658900#1 315658900#2 315658900#3 315658900#4"/>
    </vehicle>
    <vehicle id="17" type="passenger" depart="62.33">
        <route edges="1379887973#0 1379887973#1 1339697074#1 244399270 37399713#1"/>
    </vehicle>
    <vehicle id="18" type="passenger" depart="66.00">
        <route edges="-243542154#1 464461045 318747850#1 -243542154#2 464459668#0 464459668#1 464459668#2 -315658900#5 -315658900#4 -315658900#3 -315658900#2"/>
    </vehicle>
    <vehicle id="19" type="passenger" depart="69.66">
        <route edges="464461045 318747850#1 -243542154#2 464459668#0 464459668#1 464459668#2 -315658900#5 -315658900#4 -464459665 -315658896#4 -315658896#3 -315658896#2 -315658896#1 -318747848#1"/>
    </vehicle>
    <vehicle id="20" type="passenger" depart="73.33">
        <route edges="-315658900#4 -464459665 -315658896#4 464459667"/>
    </vehicle>
    <vehicle id="21" type="passenger" depart="77.00">
        <route edges="-243542154#1 464461045 318747850#1 -243542154#2 464459668#0 464459668#1 464459668#2 -315658900#5 -315658900#4 -464459665 -315658896#4 464459667 315658900#3 315658900#4 315658900#5"/>
    </vehicle>
    <vehicle id="22" type="passenger" depart="80.66">
        <route edges="243542154#0 464461045 318747850#1"/>
    </vehicle>
    <vehicle id="23" type="passenger" depart="84.33">
        <route edges="315658900#0 315658900#1 315658900#2 315658900#3"/>
    </vehicle>
    <vehicle id="24" type="passenger" depart="88.00">
        <route edges="-315658900#5 -315658900#4 -464459665 -315658896#4 464459667 315658900#3 315658900#4 315658900#5 -464459668#2 -464459668#1 -464459668#0 -243542154#1 464461045 318747850#1 -243542154#2 464459668#0 464459668#1"/>
    </vehicle>
    <vehicle id="25" type="passenger" depart="91.66">
        <route edges="315658900#1 315658900#2 315658900#3"/>
    </vehicle>
    <vehicle id="26" type="passenger" depart="95.33">
        <route edges="243542154#2 -318747850#1 -464461045 243542154#1 464459668#0 464459668#1 464459668#2 -315658900#5 -315658900#4 -464459665 -315658896#4 -315658896#3 -315658896#2"/>
    </vehicle>
    <vehicle id="27" type="passenger" depart="99.00">
        <route edges="315658896#1 315658896#2"/>
    </vehicle>
    <vehicle id="28" type="passenger" depart="102.66">
        <route edges="464459668#2 -315658900#5 -315658900#4 -464459665 -315658896#4 464459667 315658900#3 315658900#4"/>
    </vehicle>
    <vehicle id="29" type="passenger" depart="106.33">
        <route edges="315658900#3 315658900#4 315658900#5 -464459668#2 -464459668#1 -464459668#0 243542154#2 243542154#3"/>
    </vehicle>
    <vehicle id="30" type="passenger" depart="110.00">
        <route edges="1339697074#0 1339697074#1 379943751"/>
    </vehicle>
    <vehicle id="31" type="passenger" depart="113.66">
        <route edges="-315658896#4 -315658896#3 -315658896#2"/>
    </vehicle>
    <vehicle id="32" type="passenger" depart="117.33">
        <route edges="-318747850#1 -464461045 243542154#1 464459668#0 464459668#1 464459668#2 -315658900#5 -315658900#4"/>
    </vehicle>
    <vehicle id="33" type="passenger" depart="121.00">
        <route edges="464459667 315658900#3 -464459665 -315658896#4"/>
    </vehicle>
    <vehicle id="34" type="passenger" depart="124.66">
        <route edges="244399270 37399713#1 37399713#2 37399713#3 244399271#1 394102601"/>
    </vehicle>
    <vehicle id="35" type="passenger" depart="128.33">
        <route edges="315658896#2 315658896#3 315658896#4 464459665 315658900#4 315658900#5 -464459668#2 -464459668#1 -464459668#0 -243542154#1 -243542154#0"/>
    </vehicle>
    <vehicle id="36" type="passenger" depart="132.00">
        <route edges="-243542154#2 464459668#0 464459668#1 464459668#2 -315658900#5 -315658900#4 -464459665 -315658896#4 464459667"/>
    </vehicle>
    <vehicle id="37" type="passenger" depart="135.66">
        <route edges="-464461045 243542154#1 464459668#0 464459668#1 464459668#2 -315658900#5 -315658900#4 -464459665 -315658896#4 -315658896#3"/>
    </vehicle>
    <vehicle id="38" type="passenger" depart="139.33">
        <route edges="-464461045 243542154#1 464459668#0 464459668#1 464459668#2 -315658900#5 -315658900#4 -315658900#3 -315658900#2"/>
    </vehicle>
    <vehicle id="39" type="passenger" depart="143.00">
        <route edges="-243542154#3 -318747850#1 -464461045 243542154#1 243542154#2"/>
    </vehicle>
    <vehicle id="40" type="passenger" depart="146.66">
        <route edges="-243542154#2 464459668#0 464459668#1 464459668#2 -315658900#5 -315658900#4 -464459665 -315658896#4 464459667 315658900#3 315658900#4 315658900#5 -464459668#2 -464459668#1 -464459668#0 243542154#2 -318747850#1 -464461045 243542154#1"/>
    </vehicle>
    <vehicle id="41" type="passenger" depart="150.33">
        <route edges="243542154#0 243542154#1 243542154#2 -318747850#1 -464461045"/>
    </vehicle>
    <vehicle id="42" type="passenger" depart="154.00">
        <route edges="464459668#1 464459668#2 315658900#6"/>
    </vehicle>
    <vehicle id="43" type="passenger" depart="157.66">
        <route edges="315658896#1 315658896#2 315658896#3 315658896#4 464459665 315658900#4 315658900#5 -464459668#2 -464459668#1 -464459668#0 -243542154#1 464461045 318747850#1 -243542154#2 464459668#0 464459668#1 464459668#2 -315658900#5"/>
    </vehicle>
    <vehicle id="44" type="passenger" depart="161.33">
        <route edges="315658896#0 315658896#1 315658896#2 315658896#3 315658896#4 464459665 315658900#4 315658900#5"/>
    </vehicle>
    <vehicle id="45" type="passenger" depart="165.00">
        <route edges="37399713#3"/>
    </vehicle>
    <vehicle id="46" type="passenger" depart="168.66">
        <route edges="315658900#4 315658900#5 -464459668#2 -464459668#1 -464459668#0 243542154#2"/>
    </vehicle>
    <vehicle id="47" type="passenger" depart="172.33">
        <route edges="379943747"/>
    </vehicle>
    <vehicle id="48" type="passenger" depart="176.00">
        <route edges="379943747 773060732#0"/>
    </vehicle>
    <vehicle id="49" type="passenger" depart="179.66">
        <route edges="-315658900#6 -464459668#2 -464459668#1 -464459668#0 -243542154#1 464461045 318747850#1 -243542154#2"/>
    </vehicle>
    <vehicle id="50" type="passenger" depart="183.33">
        <route edges="-243542154#3 -243542154#2 464459668#0 464459668#1 464459668#2 -315658900#5 -315658900#4 -464459665 -315658896#4 -315658896#3 -315658896#2 -315658896#1 -318747848#1"/>
    </vehicle>
    <vehicle id="51" type="passenger" depart="186.99">
        <route edges="-318747850#1 -464461045 243542154#1 464459668#0 464459668#1 464459668#2 -315658900#5"/>
    </vehicle>
    <vehicle id="52" type="passenger" depart="190.66">
        <route edges="-243542154#1 464461045 318747850#1 -243542154#2 464459668#0 464459668#1 464459668#2 -315658900#5 -315658900#4 -464459665 -315658896#4 464459667 315658900#3 315658900#4 315658900#5 -464459668#2 -464459668#1 -464459668#0 243542154#2 -318747850#1"/>
    </vehicle>
    <vehicle id="53" type="passenger" depart="194.33">
        <route edges="-315658900#4 -464459665 -315658896#4 464459667 315658900#3 315658900#4 315658900#5 315658900#6 315658900#7"/>
    </vehicle>
    <vehicle id="54" type="passenger" depart="197.99">
        <route edges="464459668#1 464459668#2 -315658900#5 -315658900#4 -464459665 -315658896#4 464459667 315658900#3 315658900#4 315658900#5 -464459668#2 -464459668#1 -464459668#0 -243542154#1 464461045 318747850#1 -243542154#2 464459668#0"/>
    </vehicle>
    <vehicle id="55" type="passenger" depart="201.66">
        <route edges="-464459665 -315658896#4 464459667 315658900#3 315658900#4 315658900#5"/>
    </vehicle>
    <vehicle id="56" type="passenger" depart="205.33">
        <route edges="-464459668#1 -464459668#0 -243542154#1 464461045 318747850#1"/>
    </vehicle>
    <vehicle id="57" type="passenger" depart="208.99">
        <route edges="-464459668#1 -464459668#0 -243542154#1 -243542154#0"/>
    </vehicle>
    <vehicle id="58" type="passenger" depart="212.66">
        <route edges="37399713#0 37399713#1 37399713#2 37399713#3 244399271#1 773060731 -775222468#2 -775222468#1"/>
    </vehicle>
    <vehicle id="59" type="passenger" depart="216.33">
        <route edges="-315658900#6 -315658900#5 -315658900#4 -464459665 -315658896#4 -315658896#3 -315658896#2 -315658896#1 -318747848#1 -318747848#0"/>
    </vehicle>
    <vehicle id="60" type="passenger" depart="219.99">
        <route edges="-318747850#1 -464461045 243542154#1 464459668#0 464459668#1 464459668#2 -315658900#5 -315658900#4 -464459665 -315658896#4 -315658896#3 -315658896#2 -315658896#1 -318747848#1"/>
    </vehicle>
    <vehicle id="61" type="passenger" depart="223.66">
        <route edges="315658900#1 315658900#2 315658900#3 -464459665"/>
    </vehicle>
    <vehicle id="62" type="passenger" depart="227.33">
        <route edges="315658900#0 315658900#1 315658900#2 315658900#3 315658900#4 315658900#5 315658900#6"/>
    </vehicle>
    <vehicle id="63" type="passenger" depart="230.99">
        <route edges="-464461046 318747850#1 -243542154#2 -243542154#1 464461045 464461046"/>
    </vehicle>
    <vehicle id="64" type="passenger" depart="234.66">
        <route edges="243542154#1 464459668#0 464459668#1 464459668#2 -315658900#5 -315658900#4 -464459665"/>
    </vehicle>
    <vehicle id="65" type="passenger" depart="238.33">
        <route edges="464459667 315658900#3 315658900#4 315658900#5 -464459668#2 -464459668#1 -464459668#0 -243542154#1 464461045"/>
    </vehicle>
    <vehicle id="66" type="passenger" depart="241.99">
        <route edges="-315658900#4 -464459665 -315658896#4 464459667 315658900#3 315658900#4 315658900#5 315658900#6 315658900#7"/>
    </vehicle>
    <vehicle id="67" type="passenger" depart="245.66">
        <route edges="1339697074#1 244399270 37399713#1 37399713#2 37399713#3 244399271#1"/>
    </vehicle>
    <vehicle id="68" type="passenger" depart="249.33">
        <route edges="315658900#0 315658900#1 315658900#2 315658900#3 315658900#4 315658900#5 -464459668#2 -464459668#1 -464459668#0 243542154#2 -318747850#1"/>
    </vehicle>
    <vehicle id="69" type="passenger" depart="252.99">
        <route edges="315658900#5 -464459668#2 -769488211"/>
    </vehicle>
    <vehicle id="70" type="passenger" depart="256.66">
        <route edges="315658896#2 315658896#3 315658896#4 464459665 315658900#4 315658900#5 -464459668#2 -464459668#1 -464459668#0 -243542154#1 464461045 318747850#1 -243542154#2 464459668#0 464459668#1"/>
    </vehicle>
    <vehicle id="71" type="passenger" depart="260.33">
        <route edges="315658896#2 315658896#3 315658896#4 464459665 315658900#4 315658900#5 -464459668#2 -464459668#1 -464459668#0 -243542154#1 464461045 318747850#1 -243542154#2 464459668#0 464459668#1"/>
    </vehicle>
    <vehicle id="72" type="passenger" depart="263.99">
        <route edges="-315658900#8 -315658900#7 -315658900#6 -464459668#2 -464459668#1"/>
    </vehicle>
    <vehicle id="73" type="passenger" depart="267.66">
        <route edges="-464459667 -315658896#3 -315658896#2 -315658896#1 -318747848#1"/>
    </vehicle>
    <vehicle id="74" type="passenger" depart="271.33">
        <route edges="-315658900#7 -315658900#6 -315658900#5 -315658900#4"/>
    </vehicle>
    <vehicle id="75" type="passenger" depart="274.99">
        <route edges="37399713#3 244399271#1 394102601 773060732#0"/>
    </vehicle>
    <vehicle id="76" type="passenger" depart="278.66">
        <route edges="315658896#4 464459665 315658900#4 315658900#5 -464459668#2 -464459668#1 -464459668#0 243542154#2 -318747850#1 -318747850#0"/>
    </vehicle>
    <vehicle id="77" type="passenger" depart="282.33">
        <route edges="1379887973#0 1379887973#1 1339697074#1"/>
    </vehicle>
    <vehicle id="78" type="passenger" depart="285.99">
        <route edges="-243542154#2 464459668#0 464459668#1 464459668#2 -315658900#5 -315658900#4 -464459665 -315658896#4"/>
    </vehicle>
    <vehicle id="79" type="passenger" depart="289.66">
        <route edges="315658900#3 315658900#4 315658900#5 -464459668#2 -464459668#1 -464459668#0 -243542154#1 464461045 318747850#1 -243542154#2 464459668#0 464459668#1 464459668#2 -315658900#5 -315658900#4"/>
    </vehicle>
    <vehicle id="80" type="passenger" depart="293.33">
        <route edges="464459665 315658900#4 315658900#5 -464459668#2 -464459668#1 -464459668#0 -243542154#1"/>
    </vehicle>
    <vehicle id="81" type="passenger" depart="296.99">
        <route edges="775222468#1"/>
    </vehicle>
    <vehicle id="82" type="passenger" depart="300.66">
        <route edges="315658900#1 315658900#2 315658900#3 315658900#4 315658900#5 -464459668#2 -464459668#1 -464459668#0 -243542154#1 464461045 318747850#1 -243542154#2 464459668#0 464459668#1 464459668#2 -315658900#5"/>
    </vehicle>
    <vehicle id="83" type="passenger" depart="304.32">
        <route edges="464461045 318747850#1 -243542154#2 464459668#0 464459668#1 464459668#2 -315658900#5 -315658900#4 -464459665 -315658896#4 464459667"/>
    </vehicle>
    <vehicle id="84" type="passenger" depart="307.99">
        <route edges="-464459667 315658896#4 464459665 315658900#4 315658900#5 -464459668#2 -464459668#1 -464459668#0"/>
    </vehicle>
    <vehicle id="85" type="passenger" depart="311.66">
        <route edges="769488211 464459668#2 -315658900#5 -315658900#4 -464459665 -315658896#4 464459667 315658900#3 315658900#4"/>
    </vehicle>
    <vehicle id="86" type="passenger" depart="315.32">
        <route edges="-464461045 243542154#1 464459668#0"/>
    </vehicle>
    <vehicle id="87" type="passenger" depart="318.99">
        <route edges="318747848#0 318747848#1 315658896#1 315658896#2 315658896#3 315658896#4 464459665 315658900#4 315658900#5 -464459668#2 -464459668#1 -464459668#0 -243542154#1 -243542154#0"/>
    </vehicle>
    <vehicle id="88" type="passenger" depart="322.66">
        <route edges="-243542154#2 464459668#0 464459668#1 464459668#2 -315658900#5 -315658900#4 -464459665 -315658896#4 -315658896#3"/>
    </vehicle>
    <vehicle id="89" type="passenger" depart="326.32">
        <route edges="-464459668#2"/>
    </vehicle>
    <vehicle id="90" type="passenger" depart="329.99">
        <route edges="-315658896#5 464459665 315658900#4 315658900#5 -464459668#2 -464459668#1 -464459668#0 243542154#2 243542154#3"/>
    </vehicle>
    <vehicle id="91" type="passenger" depart="333.66">
        <route edges="-464459668#2 -464459668#1 -464459668#0 -243542154#1 464461045 318747850#1 -243542154#2 464459668#0 464459668#1 464459668#2 -315658900#5 -315658900#4 -464459665 -315658896#4 -315658896#3"/>
    </vehicle>
    <vehicle id="92" type="passenger" depart="337.32">
        <route edges="-315658896#5 464459665 315658900#4 315658900#5 -464459668#2 -464459668#1 -464459668#0 -243542154#1 464461045 318747850#1"/>
    </vehicle>
    <vehicle id="93" type="passenger" depart="340.99">
        <route edges="464461045 318747850#1 -243542154#2 464459668#0 464459668#1 464459668#2 -315658900#5 -315658900#4 -315658900#3 -315658900#2 -315658900#1"/>
    </vehicle>
    <vehicle id="94" type="passenger" depart="344.66">
        <route edges="1339697075#1 -464763971#2 1379887973#0 1379887973#1"/>
    </vehicle>
    <vehicle id="95" type="passenger" depart="348.32">
        <route edges="464459668#0 464459668#1 464459668#2 -315658900#5 -315658900#4 -464459665 -315658896#4 -315658896#3 -315658896#2 -315658896#1 -318747848#1"/>
    </vehicle>
    <vehicle id="96" type="passenger" depart="351.99">
        <route edges="-464461045 243542154#1 464459668#0 464459668#1 464459668#2 -315658900#5 -315658900#4 -464459665 -315658896#4 464459667 315658900#3 315658900#4 315658900#5 -464459668#2 -464459668#1 -464459668#0 -243542154#1 464461045"/>
    </vehicle>
    <vehicle id="97" type="passenger" depart="355.66">
        <route edges="464459668#0 464459668#1 464459668#2 -315658900#5 -315658900#4 -464459665 -315658896#4 464459667 315658900#3 315658900#4 315658900#5 -464459668#2 -464459668#1 -464459668#0 -243542154#1 464461045 318747850#1 -243542154#2"/>
    </vehicle>
    <vehicle id="98" type="passenger" depart="359.32">
        <route edges="315658900#4 315658900#5 -464459668#2 -464459668#1"/>
    </vehicle>
    <vehicle id="99" type="passenger" depart="362.99">
        <route edges="318747850#1 -243542154#2 464459668#0 464459668#1 464459668#2 -315658900#5 -315658900#4 -315658900#3 -464459667"/>
    </vehicle>
    <vehicle id="100" type="passenger" depart="366.66">
        <route edges="315658900#1 315658900#2 315658900#3 315658900#4 315658900#5 -464459668#2 -464459668#1 -464459668#0 243542154#2 -318747850#1 464461046"/>
    </vehicle>
    <vehicle id="101" type="passenger" depart="370.32">
        <route edges="315658900#0 315658900#1 315658900#2 -464459667 -315658896#3 -315658896#2 -315658896#1"/>
    </vehicle>
    <vehicle id="102" type="passenger" depart="373.99">
        <route edges="243542154#1 464459668#0 464459668#1 -769488211"/>
    </vehicle>
    <vehicle id="103" type="passenger" depart="377.66">
        <route edges="-243542154#1 464461045 318747850#1 -243542154#2 464459668#0 464459668#1 464459668#2 -315658900#5"/>
    </vehicle>
    <vehicle id="104" type="passenger" depart="381.32">
        <route edges="-315658900#4 -464459665 -315658896#4 -315658896#3 -315658896#2"/>
    </vehicle>
    <vehicle id="105" type="passenger" depart="384.99">
        <route edges="464459668#0"/>
    </vehicle>
    <vehicle id="106" type="passenger" depart="388.66">
        <route edges="-315658900#4 -464459665 -315658896#4 -315658896#3 -315658896#2 -315658896#1 -315658896#0"/>
    </vehicle>
    <vehicle id="107" type="passenger" depart="392.32">
        <route edges="318747848#0 318747848#1 315658896#1"/>
    </vehicle>
    <vehicle id="108" type="passenger" depart="395.99">
        <route edges="-464459668#1 -464459668#0 -243542154#1"/>
    </vehicle>
    <vehicle id="109" type="passenger" depart="399.66">
        <route edges="318747850#1 -243542154#2 464459668#0 464459668#1 464459668#2 -315658900#5 -315658900#4 -464459665 315658896#5"/>
    </vehicle>
    <vehicle id="110" type="passenger" depart="403.32">
        <route edges="384030398 1379887973#0 1379887973#1 1339697074#1"/>
    </vehicle>
    <vehicle id="111" type="passenger" depart="406.99">
        <route edges="-315658900#8 -315658900#7 -315658900#6 -464459668#2 -464459668#1 -464459668#0 243542154#2"/>
    </vehicle>
    <vehicle id="112" type="passenger" depart="410.66">
        <route edges="-315658896#5 464459665 315658900#4 315658900#5 -464459668#2 -464459668#1 -464459668#0 243542154#2"/>
    </vehicle>
    <vehicle id="113" type="passenger" depart="414.32">
        <route edges="-315658896#1"/>
    </vehicle>
    <vehicle id="114" type="passenger" depart="417.99">
        <route edges="318747850#0 -464461045 243542154#1 243542154#2 -318747850#1"/>
    </vehicle>
    <vehicle id="115" type="passenger" depart="421.65">
        <route edges="769488211 -464459668#1 -464459668#0 243542154#2 -318747850#1 464461046"/>
    </vehicle>
    <vehicle id="116" type="passenger" depart="425.32">
        <route edges="-318747850#1 -464461045 243542154#1 243542154#2"/>
    </vehicle>
    <vehicle id="117" type="passenger" depart="428.99">
        <route edges="-243542154#1 464461045 318747850#1 -243542154#2 464459668#0 464459668#1 464459668#2 -315658900#5"/>
    </vehicle>
    <vehicle id="118" type="passenger" depart="432.65">
        <route edges="1379887973#1 1339697074#1 244399270 37399713#1 37399713#2 37399713#3"/>
    </vehicle>
    <vehicle id="119" type="passenger" depart="436.32">
        <route edges="315658900#0 315658900#1 315658900#2 315658900#3 315658900#4 315658900#5 -464459668#2 -464459668#1 -464459668#0 -243542154#1 464461045 318747850#1 -243542154#2 464459668#0 464459668#1 464459668#2 -315658900#5"/>
    </vehicle>
    <vehicle id="120" type="passenger" depart="439.99">
        <route edges="-464461046 318747850#1 -243542154#2"/>
    </vehicle>
    <vehicle id="121" type="passenger" depart="443.65">
        <route edges="315658896#3 464459667 315658900#3 -464459665 -315658896#4 -315658896#3 -315658896#2 -315658896#1 -318747848#1 -318747848#0"/>
    </vehicle>
    <vehicle id="122" type="passenger" depart="447.32">
        <route edges="-315658896#4 464459667 315658900#3 315658900#4 315658900#5 -464459668#2 -464459668#1 -464459668#0 243542154#2 -318747850#1 -318747850#0"/>
    </vehicle>
    <vehicle id="123" type="passenger" depart="450.99">
        <route edges="464459665 315658900#4 315658900#5 -464459668#2 -464459668#1 -464459668#0"/>
    </vehicle>
    <vehicle id="124" type="passenger" depart="454.65">
        <route edges="318747848#1 315658896#1 315658896#2"/>
    </vehicle>
    <vehicle id="125" type="passenger" depart="458.32">
        <route edges="318747850#0 318747850#1 -243542154#2 464459668#0 464459668#1 464459668#2 -315658900#5 -315658900#4 -315658900#3 -464459667 315658896#4"/>
    </vehicle>
    <vehicle id="126" type="passenger" depart="461.99">
        <route edges="243542154#1 464459668#0 464459668#1 464459668#2 -315658900#5 -315658900#4 -464459665 -315658896#4 464459667 315658900#3 315658900#4 315658900#5 -464459668#2 -464459668#1 -464459668#0"/>
    </vehicle>
    <vehicle id="127" type="passenger" depart="465.65">
        <route edges="769488211 464459668#2 -315658900#5 -315658900#4 -464459665 -315658896#4 -315658896#3 -315658896#2 -315658896#1"/>
    </vehicle>
    <vehicle id="128" type="passenger" depart="469.32">
        <route edges="315658900#1 315658900#2 315658900#3 -464459665 -315658896#4 464459667 -315658900#2"/>
    </vehicle>
    <vehicle id="129" type="passenger" depart="472.99">
        <route edges="-315658896#1"/>
    </vehicle>
    <vehicle id="130" type="passenger" depart="476.65">
        <route edges="-464459668#0 -243542154#1 464461045 318747850#1 -243542154#2 464459668#0 464459668#1 464459668#2 -315658900#5 -315658900#4 -464459665 315658896#5"/>
    </vehicle>
    <vehicle id="131" type="passenger" depart="480.32">
        <route edges="-315658900#7 -315658900#6 -464459668#2 -464459668#1 -464459668#0 243542154#2 -318747850#1 -464461045 243542154#1"/>
    </vehicle>
    <vehicle id="132" type="passenger" depart="483.99">
        <route edges="1339697074#1"/>
    </vehicle>
    <vehicle id="133" type="passenger" depart="487.65">
        <route edges="243542154#0 243542154#1 464459668#0 464459668#1 464459668#2 -315658900#5 -315658900#4 -464459665 -315658896#4 -315658896#3 -315658896#2 -315658896#1 -318747848#1"/>
    </vehicle>
    <vehicle id="134" type="passenger" depart="491.32">
        <route edges="37399713#2 37399713#3 244399271#1 394102601 773060732#0 773060732#1 773060732#2 773060732#3"/>
    </vehicle>
    <vehicle id="135" type="passenger" depart="494.99">
        <route edges="1339697074#0 1339697074#1 244399270 37399713#1 37399713#2 37399713#3 244399271#1 773060731"/>
    </vehicle>
    <vehicle id="136" type="passenger" depart="498.65">
        <route edges="-464459665 -315658896#4 464459667 315658900#3 315658900#4 315658900#5 -464459668#2 -464459668#1 -464459668#0 -243542154#1"/>
    </vehicle>
    <vehicle id="137" type="passenger" depart="502.32">
        <route edges="-464763971#2 1379887973#0 1379887973#1"/>
    </vehicle>
    <vehicle id="138" type="passenger" depart="505.99">
        <route edges="315658900#0 315658900#1 315658900#2 -464459667 -315658896#3 -315658896#2 -315658896#1 -318747848#1 -318747848#0"/>
    </vehicle>
    <vehicle id="139" type="passenger" depart="509.65">
        <route edges="-315658900#7 -315658900#6"/>
    </vehicle>
    <vehicle id="140" type="passenger" depart="513.32">
        <route edges="464459665 -315658900#3"/>
    </vehicle>
    <vehicle id="141" type="passenger" depart="516.99">
        <route edges="464459667 315658900#3 -464459665 -315658896#4 -315658896#3 -315658896#2 -315658896#1"/>
    </vehicle>
    <vehicle id="142" type="passenger" depart="520.65">
        <route edges="-315658900#3 -464459667 315658896#4 464459665 315658900#4 315658900#5 -464459668#2 -464459668#1 -464459668#0 -243542154#1 464461045 318747850#1 -243542154#2"/>
    </vehicle>
    <vehicle id="143" type="passenger" depart="524.32">
        <route edges="773060732#0"/>
    </vehicle>
    <vehicle id="144" type="passenger" depart="527.99">
        <route edges="384030398 1379887973#0 1379887973#1 1339697074#1"/>
    </vehicle>
    <vehicle id="145" type="passenger" depart="531.65">
        <route edges="315658900#4 315658900#5 -464459668#2 -464459668#1 -464459668#0 -243542154#1 464461045 318747850#1 -243542154#2 464459668#0 464459668#1 464459668#2 -315658900#5 -315658900#4 -464459665 -315658896#4 -315658896#3 -315658896#2 -315658896#1 -315658896#0"/>
    </vehicle>