<?xml version="1.0" encoding="UTF-8"?>

<!-- generated on 2026-04-17 02:51:51.222472 by Eclipse SUMO randomTrips.py v1.26.0
<configuration>
    <net-file value="/Users/junlee/Desktop/2026-1/js/result/tradeoff_pet_top12_seed12_60min_20260417_024953/sumo_nets/cw_6428/network.net.xml"/>
    <output-trip-file value="/Users/junlee/Desktop/2026-1/js/result/tradeoff_pet_top12_seed12_60min_20260417_024953/sumo_nets/cw_6428/routes_seed52.trips.xml"/>
    <route-file value="/Users/junlee/Desktop/2026-1/js/result/tradeoff_pet_top12_seed12_60min_20260417_024953/sumo_nets/cw_6428/routes_seed52.rou.xml"/>
    <vehicle-class value="passenger"/>
    <seed value="52"/>
    <period value="3.2361848849542767"/>
</configuration>
-->

<routes xmlns:xsi="http://www.w3.org/2001/XMLSchema-instance" xsi:noNamespaceSchemaLocation="http://sumo.dlr.de/xsd/routes_file.xsd">
    <vType id="passenger" vClass="passenger"/>
    <trip id="0" depart="0.00" from="315658900#5" to="-243542154#2" type="passenger"/>
    <trip id="1" depart="3.24" from="-464459665" to="-464459665" type="passenger"/>
    <trip id="2" depart="6.47" from="384030398" to="-775222468#2" type="passenger"/>
    <trip id="3" depart="9.71" from="464459668#2" to="464461046" type="passenger"/>
    <trip id="4" depart="12.94" from="464763971#2" to="773060732#1" type="passenger"/>
    <trip id="5" depart="16.18" from="315658900#1" to="315658900#6" type="passenger"/>
    <trip id="6" depart="19.42" from="464763971#0" to="244399271#1" type="passenger"/>
    <trip id="7" depart="22.65" from="318747850#1" to="464459665" type="passenger"/>
    <trip id="8" depart="25.89" from="-243542154#3" to="-243542154#0" type="passenger"/>
    <trip id="9" depart="29.13" from="243542154#2" to="-315658900#5" type="passenger"/>
    <trip id="10" depart="32.36" from="-315658900#3" to="315658896#5" type="passenger"/>
    <trip id="11" depart="35.60" from="37399713#2" to="379943747" type="passenger"/>
    <trip id="12" depart="38.83" from="464459668#2" to="464459665" type="passenger"/>
    <trip id="13" depart="42.07" from="464459667" to="-318747850#0" type="passenger"/>
    <trip id="14" depart="45.31" from="318747850#0" to="464459668#1" type="passenger"/>
    <trip id="15" depart="48.54" from="315658896#2" to="315658900#6" type="passenger"/>
    <trip id="16" depart="51.78" from="-315658896#4" to="315658900#5" type="passenger"/>
    <trip id="17" depart="55.02" from="-315658900#4" to="318747850#1" type="passenger"/>
    <trip id="18" depart="58.25" from="769488211" to="-769488211" type="passenger"/>
    <trip id="19" depart="61.49" from="-315658896#3" to="-315658896#0" type="passenger"/>
    <trip id="20" depart="64.72" from="315658896#1" to="-315658900#4" type="passenger"/>
    <trip id="21" depart="67.96" from="315658896#0" to="315658900#6" type="passenger"/>
    <trip id="22" depart="71.20" from="-464459667" to="464459667" type="passenger"/>
    <trip id="23" depart="74.43" from="-464461045" to="-315658900#5" type="passenger"/>
    <trip id="24" depart="77.67" from="-318747850#1" to="315658900#8" type="passenger"/>
    <trip id="25" depart="80.90" from="315658896#4" to="315658900#4" type="passenger"/>
    <trip id="26" depart="84.14" from="315658900#1" to="464459668#0" type="passenger"/>
    <trip id="27" depart="87.38" from="318747850#0" to="-464459665" type="passenger"/>
    <trip id="28" depart="90.61" from="-464459668#0" to="243542154#3" type="passenger"/>
    <trip id="29" depart="93.85" from="464459667" to="-464459668#1" type="passenger"/>
    <trip id="30" depart="97.09" from="-464459667" to="-315658900#1" type="passenger"/>
    <trip id="31" depart="100.32" from="318747850#0" to="464459667" type="passenger"/>
    <trip id="32" depart="103.56" from="-243542154#2" to="315658896#4" type="passenger"/>
    <trip id="33" depart="106.79" from="-464461046" to="243542154#2" type="passenger"/>
    <trip id="34" depart="110.03" from="-464459668#1" to="315658900#3" type="passenger"/>
    <trip id="35" depart="113.27" from="243542154#0" to="-464461045" type="passenger"/>
    <trip id="36" depart="116.50" from="1339697075#0" to="394102601" type="passenger"/>
    <trip id="37" depart="119.74" from="-464459665" to="-464459668#0" type="passenger"/>
    <trip id="38" depart="122.98" from="-243542154#1" to="-315658896#4" type="passenger"/>
    <trip id="39" depart="126.21" from="315658896#3" to="-464459668#2" type="passenger"/>
    <trip id="40" depart="129.45" from="775222468#0" to="773060732#1" type="passenger"/>
    <trip id="41" depart="132.68" from="315658900#2" to="-315658900#0" type="passenger"/>
    <trip id="42" depart="135.92" from="315658900#0" to="-315658896#0" type="passenger"/>
    <trip id="43" depart="139.16" from="243542154#0" to="464459668#1" type="passenger"/>
    <trip id="44" depart="142.39" from="-315658896#1" to="-318747848#1" type="passenger"/>
    <trip id="45" depart="145.63" from="315658896#4" to="-315658896#2" type="passenger"/>
    <trip id="46" depart="148.86" from="464459668#1" to="-243542154#0" type="passenger"/>
    <trip id="47" depart="152.10" from="-315658896#4" to="315658900#3" type="passenger"/>
    <trip id="48" depart="155.34" from="769488211" to="-315658896#2" type="passenger"/>
    <trip id="49" depart="158.57" from="-315658900#6" to="-315658896#0" type="passenger"/>
    <trip id="50" depart="161.81" from="-464763971#2" to="37399713#3" type="passenger"/>
    <trip id="51" depart="165.05" from="243542154#2" to="315658900#8" type="passenger"/>
    <trip id="52" depart="168.28" from="315658896#2" to="315658900#3" type="passenger"/>
    <trip id="53" depart="171.52" from="-243542154#3" to="-243542154#1" type="passenger"/>
    <trip id="54" depart="174.75" from="-243542154#2" to="-315658900#1" type="passenger"/>
    <trip id="55" depart="177.99" from="243542154#1" to="464461046" type="passenger"/>
    <trip id="56" depart="181.23" from="315658900#2" to="-318747848#0" type="passenger"/>
    <trip id="57" depart="184.46" from="464459667" to="-318747850#1" type="passenger"/>
    <trip id="58" depart="187.70" from="318747848#0" to="-315658900#3" type="passenger"/>
    <trip id="59" depart="190.93" from="37399713#1" to="394102601" type="passenger"/>
    <trip id="60" depart="194.17" from="464459668#0" to="-315658896#1" type="passenger"/>
    <trip id="61" depart="197.41" from="315658896#1" to="-315658900#5" type="passenger"/>
    <trip id="62" depart="200.64" from="243542154#2" to="464459668#0" type="passenger"/>
    <trip id="63" depart="203.88" from="-315658896#4" to="-318747848#1" type="passenger"/>
    <trip id="64" depart="207.12" from="315658896#2" to="243542154#2" type="passenger"/>
    <trip id="65" depart="210.35" from="775222468#2" to="773060732#1" type="passenger"/>
    <trip id="66" depart="213.59" from="1339697075#1" to="379943751" type="passenger"/>
    <trip id="67" depart="216.82" from="-315658900#5" to="-315658896#0" type="passenger"/>
    <trip id="68" depart="220.06" from="315658896#4" to="-318747848#1" type="passenger"/>
    <trip id="69" depart="223.30" from="-464763971#2" to="-464763971#2" type="passenger"/>
    <trip id="70" depart="226.53" from="-318747850#1" to="-464459667" type="passenger"/>
    <trip id="71" depart="229.77" from="464459668#0" to="-769488211" type="passenger"/>
    <trip id="72" depart="233.01" from="-464459668#2" to="243542154#3" type="passenger"/>
    <trip id="73" depart="236.24" from="-315658896#5" to="243542154#1" type="passenger"/>
    <trip id="74" depart="239.48" from="-464459668#1" to="-318747850#0" type="passenger"/>
    <trip id="75" depart="242.71" from="318747848#0" to="-464461045" type="passenger"/>
    <trip id="76" depart="245.95" from="464763971#2" to="244399270" type="passenger"/>
    <trip id="77" depart="249.19" from="-315658900#5" to="-315658900#2" type="passenger"/>
    <trip id="78" depart="252.42" from="318747848#0" to="-315658896#1" type="passenger"/>
    <trip id="79" depart="255.66" from="315658900#4" to="-315658896#2" type="passenger"/>
    <trip id="80" depart="258.89" from="-464461046" to="-464459668#0" type="passenger"/>
    <trip id="81" depart="262.13" from="315658896#3" to="464461045" type="passenger"/>
    <trip id="82" depart="265.37" from="-315658900#8" to="315658900#7" type="passenger"/>
    <trip id="83" depart="268.60" from="464459668#2" to="464461045" type="passenger"/>
    <trip id="84" depart="271.84" from="315658896#2" to="-318747850#0" type="passenger"/>
    <trip id="85" depart="275.08" from="-464461046" to="315658896#5" type="passenger"/>
    <trip id="86" depart="278.31" from="318747850#0" to="243542154#2" type="passenger"/>
    <trip id="87" depart="281.55" from="-243542154#3" to="-315658900#4" type="passenger"/>
    <trip id="88" depart="284.78" from="315658896#2" to="315658896#5" type="passenger"/>
    <trip id="89" depart="288.02" from="315658900#5" to="-318747848#1" type="passenger"/>
    <trip id="90" depart="291.26" from="-464459667" to="315658900#6" type="passenger"/>
    <trip id="91" depart="294.49" from="318747848#1" to="315658900#6" type="passenger"/>
    <trip id="92" depart="297.73" from="464459665" to="-464459665" type="passenger"/>
    <trip id="93" depart="300.97" from="-464459665" to="-464459668#0" type="passenger"/>
    <trip id="94" depart="304.20" from="-243542154#3" to="-315658896#4" type="passenger"/>
    <trip id="95" depart="307.44" from="-318747850#1" to="315658896#5" type="passenger"/>
    <trip id="96" depart="310.67" from="-464461045" to="-464459668#0" type="passenger"/>
    <trip id="97" depart="313.91" from="315658900#0" to="-318747850#1" type="passenger"/>
    <trip id="98" depart="317.15" from="318747848#0" to="-464459667" type="passenger"/>
    <trip id="99" depart="320.38" from="315658900#5" to="315658900#5" type="passenger"/>
    <trip id="100" depart="323.62" from="-318747850#1" to="243542154#3" type="passenger"/>
    <trip id="101" depart="326.85" from="318747850#1" to="-315658900#0" type="passenger"/>
    <trip id="102" depart="330.09" from="-464459668#2" to="315658900#4" type="passenger"/>
    <trip id="103" depart="333.33" from="-464459668#1" to="243542154#1" type="passenger"/>
    <trip id="104" depart="336.56" from="315658900#4" to="315658896#4" type="passenger"/>
    <trip id="105" depart="339.80" from="464459668#2" to="-318747850#1" type="passenger"/>
    <trip id="106" depart="343.04" from="318747848#0" to="-243542154#2" type="passenger"/>
    <trip id="107" depart="346.27" from="-315658896#5" to="315658896#4" type="passenger"/>
    <trip id="108" depart="349.51" from="464459665" to="-318747850#1" type="passenger"/>
    <trip id="109" depart="352.74" from="315658900#2" to="315658900#6" type="passenger"/>
    <trip id="110" depart="355.98" from="384030398" to="773060731" type="passenger"/>
    <trip id="111" depart="359.22" from="315658896#0" to="315658900#7" type="passenger"/>
    <trip id="112" depart="362.45" from="384030398" to="244399271#1" type="passenger"/>
    <trip id="113" depart="365.69" from="384030398" to="773060732#1" type="passenger"/>
    <trip id="114" depart="368.93" from="464459665" to="464461046" type="passenger"/>
    <trip id="115" depart="372.16" from="315658900#4" to="-315658896#1" type="passenger"/>
    <trip id="116" depart="375.40" from="464459665" to="464459665" type="passenger"/>
    <trip id="117" depart="378.63" from="773060731" to="773060731" type="passenger"/>
    <trip id="118" depart="381.87" from="37399713#0" to="379943747" type="passenger"/>
    <trip id="119" depart="385.11" from="315658896#2" to="315658900#5" type="passenger"/>
    <trip id="120" depart="388.34" from="-315658896#4" to="-464459668#1" type="passenger"/>
    <trip id="121" depart="391.58" from="464459667" to="-318747848#0" type="passenger"/>
    <trip id="122" depart="394.81" from="-464461045" to="315658900#4" type="passenger"/>
    <trip id="123" depart="398.05" from="773060732#2" to="773060732#2" type="passenger"/>
    <trip id="124" depart="401.29" from="384030398" to="379943751" type="passenger"/>
    <trip id="125" depart="404.52" from="-315658900#5" to="-315658900#5" type="passenger"/>
    <trip id="126" depart="407.76" from="243542154#2" to="464459668#0" type="passenger"/>
    <trip id="127" depart="411.00" from="-315658896#1" to="-315658896#0" type="passenger"/>
    <trip id="128" depart="414.23" from="379943747" to="773060732#0" type="passenger"/>
    <trip id="129" depart="417.47" from="-315658900#6" to="-243542154#0" type="passenger"/>
    <trip id="130" depart="420.70" from="315658900#4" to="-243542154#2" type="passenger"/>
    <trip id="131" depart="423.94" from="315658896#3" to="-318747850#0" type="passenger"/>
    <trip id="132" depart="427.18" from="-315658900#8" to="-243542154#0" type="passenger"/>
    <trip id="133" depart="430.41" from="315658896#3" to="-315658896#0" type="passenger"/>
    <trip id="134" depart="433.65" from="1339697075#0" to="-775222468#1" type="passenger"/>
    <trip id="135" depart="436.88" from="-315658900#8" to="-315658896#2" type="passenger"/>
    <trip id="136" depart="440.12" from="-315658900#1" to="-315658900#0" type="passenger"/>
    <trip id="137" depart="443.36" from="1339697074#1" to="37399713#2" type="passenger"/>
    <trip id="138" depart="446.59" from="-464461045" to="243542154#1" type="passenger"/>
    <trip id="139" depart="449.83" from="315658900#0" to="-315658896#1" type="passenger"/>
    <trip id="140" depart="453.07" from="-315658896#4" to="464461046" type="passenger"/>
    <trip id="141" depart="456.30" from="315658896#0" to="-315658896#2" type="passenger"/>
    <trip id="142" depart="459.54" from="318747850#1" to="-315658900#4" type="passenger"/>
    <trip id="143" depart="462.77" from="773060732#1" to="773060732#3" type="passenger"/>
    <trip id="144" depart="466.01" from="384030398" to="1379887973#1" type="passenger"/>
    <trip id="145" depart="469.25" from="464459668#1" to="-243542154#1" type="passenger"/>
    <trip id="146" depart="472.48" from="-315658900#8" to="-315658900#3" type="passenger"/>
    <trip id="147" depart="475.72" from="1339697075#0" to="1339697075#1" type="passenger"/>
    <trip id="148" depart="478.96" from="464459665" to="-243542154#1" type="passenger"/>
    <trip id="149" depart="482.19" from="773060731" to="-775222468#2" type="passenger"/>
    <trip id="150" depart="485.43" from="-464459665" to="-464459668#0" type="passenger"/>
    <trip id="151" depart="488.66" from="-315658900#3" to="315658900#5" type="passenger"/>
    <trip id="152" depart="491.90" from="315658896#2" to="464459668#0" type="passenger"/>
    <trip id="153" depart="495.14" from="315658896#0" to="243542154#3" type="passenger"/>
    <trip id="154" depart="498.37" from="464459668#2" to="-315658900#1" type="passenger"/>
    <trip id="155" depart="501.61" from="-315658900#4" to="-315658900#2" type="passenger"/>
    <trip id="156" depart="504.84" from="243542154#0" to="315658900#4" type="passenger"/>
    <trip id="157" depart="508.08" from="315658896#0" to="464461045" type="passenger"/>
    <trip id="158" depart="511.32" from="-315658900#4" to="464459668#0" type="passenger"/>
    <trip id="159" depart="514.55" from="464459668#0" to="-318747850#1" type="passenger"/>
    <trip id="160" depart="517.79" from="315658896#1" to="315658896#2" type="passenger"/>
    <trip id="161" depart="521.03" from="315658896#4" to="-243542154#1" type="passenger"/>
    <trip id="162" depart="524.26" from="-464459668#2" to="-318747850#0" type="passenger"/>
    <trip id="163" depart="527.50" from="464461045" to="464459668#2" type="passenger"/>
    <trip id="164" depart="530.73" from="-243542154#1" to="-464459667" type="passenger"/>
    <trip id="165" depart="533.97" from="315658896#4" to="-243542154#2" type="passenger"/>
    <trip id="166" depart="537.21" from="315658900#1" to="464459665" type="passenger"/>
    <trip id="167" depart="540.44" from="1339697075#0" to="773060732#1" type="passenger"/>
    <trip id="168" depart="543.68" from="315658900#5" to="-315658900#2" type="passenger"/>
    <trip id="169" depart="546.92" from="464459665" to="-464459667" type="passenger"/>
    <trip id="170" depart="550.15" from="-464461045" to="-318747848#0" type="passenger"/>
    <trip id="171" depart="553.39" from="37399713#2" to="-775222468#0" type="passenger"/>
    <trip id="172" depart="556.62" from="-464459668#1" to="464459668#0" type="passenger"/>
    <trip id="173" depart="559.86" from="315658896#3" to="-464459668#0" type="passenger"/>
    <trip id="174" depart="563.10" from="-315658896#5" to="464459668#0" type="passenger"/>
    <trip id="175" depart="566.33" from="-464461045" to="-243542154#1" type="passenger"/>
    <trip id="176" depart="569.57" from="315658896#3" to="315658900#4" type="passenger"/>
    <trip id="177" depart="572.80" from="315658900#2" to="-464459667" type="passenger"/>
    <trip id="178" depart="576.04" from="318747848#0" to="-315658896#3" type="passenger"/>
    <trip id="179" depart="579.28" from="315658896#1" to="315658900#7" type="passenger"/>
    <trip id="180" depart="582.51" from="315658900#5" to="318747850#1" type="passenger"/>
    <trip id="181" depart="585.75" from="464459665" to="-315658896#4" type="passenger"/>
    <trip id="182" depart="588.99" from="-464459668#1" to="243542154#1" type="passenger"/>
    <trip id="183" depart="592.22" from="464461045" to="-318747848#0" type="passenger"/>
    <trip id="184" depart="595.46" from="315658900#1" to="315658896#4" type="passenger"/>
    <trip id="185" depart="598.69" from="318747848#1" to="315658900#6" type="passenger"/>
    <trip id="186" depart="601.93" from="-464461046" to="-243542154#2" type="passenger"/>
    <trip id="187" depart="605.17" from="-243542154#2" to="-315658896#4" type="passenger"/>
    <trip id="188" depart="608.40" from="244399271#1" to="379943747" type="passenger"/>
    <trip id="189" depart="611.64" from="769488211" to="-318747848#1" type="passenger"/>
    <trip id="190" depart="614.88" from="-315658900#4" to="-315658900#2" type="passenger"/>
    <trip id="191" depart="618.11" from="-315658900#6" to="-315658900#5" type="passenger"/>
    <trip id="192" depart="621.35" from="318747848#1" to="-315658896#3" type="passenger"/>
    <trip id="193" depart="624.58" from="464459668#1" to="315658900#7" type="passenger"/>
    <trip id="194" depart="627.82" from="464459668#1" to="-315658896#1" type="passenger"/>
    <trip id="195" depart="631.06" from="315658900#3" to="-464459668#1" type="passenger"/>
    <trip id="196" depart="634.29" from="243542154#2" to="-315658896#1" type="passenger"/>
    <trip id="197" depart="637.53" from="315658900#0" to="-315658896#3" type="passenger"/>
    <trip id="198" depart="640.76" from="243542154#0" to="315658900#6" type="passenger"/>
    <trip id="199" depart="644.00" from="-464459668#0" to="464461046" type="passenger"/>
    <trip id="200" depart="647.24" from="-243542154#1" to="-243542154#1" type="passenger"/>
    <trip id="201" depart="650.47" from="-315658896#4" to="-315658900#3" type="passenger"/>
    <trip id="202" depart="653.71" from="-315658900#7" to="318747850#1" type="passenger"/>
    <trip id="203" depart="656.95" from="1339697075#1" to="379943747" type="passenger"/>
    <trip id="204" depart="660.18" from="318747848#1" to="464461045" type="passenger"/>
    <trip id="205" depart="663.42" from="1379887973#0" to="244399270" type="passenger"/>
    <trip id="206" depart="666.65" from="464459668#0" to="-464459665" type="passenger"/>
    <trip id="207" depart="669.89" from="243542154#2" to="-315658896#0" type="passenger"/>
    <trip id="208" depart="673.13" from="243542154#1" to="315658900#4" type="passenger"/>
    <trip id="209" depart="676.36" from="775222468#0" to="773060732#1" type="passenger"/>
    <trip id="210" depart="679.60" from="315658900#5" to="-464461045" type="passenger"/>
    <trip id="211" depart="682.84" from="-315658900#3" to="-318747848#1" type="passenger"/>
    <trip id="212" depart="686.07" from="315658896#3" to="243542154#3" type="passenger"/>
    <trip id="213" depart="689.31" from="464459668#2" to="-464461045" type="passenger"/>
    <trip id="214" depart="692.54" from="464461045" to="-243542154#1" type="passenger"/>
    <trip id="215" depart="695.78" from="1379887973#1" to="37399713#2" type="passenger"/>
    <trip id="216" depart="699.02" from="1339697075#1" to="773060732#3" type="passenger"/>
    <trip id="217" depart="702.25" from="-464459668#1" to="-243542154#0" type="passenger"/>
    <trip id="218" depart="705.49" from="315658900#0" to="315658900#7" type="passenger"/>
    <trip id="219" depart="708.72" from="-464459667" to="464459665" type="passenger"/>
    <trip id="220" depart="711.96" from="-315658900#8" to="-243542154#0" type="passenger"/>
    <trip id="221" depart="715.20" from="-243542154#2" to="315658900#4" type="passenger"/>
    <trip id="222" depart="718.43" from="37399713#2" to="-775222468#2" type="passenger"/>
    <trip id="223" depart="721.67" from="315658896#2" to="-464461045" type="passenger"/>
    <trip id="224" depart="724.91" from="384030398" to="-775222468#1" type="passenger"/>
    <trip id="225" depart="728.14" from="318747850#1" to="-243542154#0" type="passenger"/>
    <trip id="226" depart="731.38" from="-464459668#2" to="-243542154#0" type="passenger"/>
    <trip id="227" depart="734.61" from="-315658896#5" to="-464459667" type="passenger"/>
    <trip id="228" depart="737.85" from="318747850#0" to="-315658900#0" type="passenger"/>
    <trip id="229" depart="741.09" from="37399713#2" to="773060731" type="passenger"/>
    <trip id="230" depart="744.32" from="37399713#1" to="773060732#2" type="passenger"/>
    <trip id="231" depart="747.56" from="315658900#4" to="464459668#1" type="passenger"/>
    <trip id="232" depart="750.79" from="-318747850#1" to="-769488211" type="passenger"/>
    <trip id="233" depart="754.03" from="315658900#1" to="315658900#7" type="passenger"/>
    <trip id="234" depart="757.27" from="318747848#1" to="315658900#7" type="passenger"/>
    <trip id="235" depart="760.50" from="-464461045" to="-315658896#1" type="passenger"/>
    <trip id="236" depart="763.74" from="315658896#4" to="315658900#8" type="passenger"/>
    <trip id="237" depart="766.98" from="-464459668#1" to="464461045" type="passenger"/>
    <trip id="238" depart="770.21" from="464461045" to="-464459665" type="passenger"/>
    <trip id="239" depart="773.45" from="318747850#0" to="-464459665" type="passenger"/>
    <trip id="240" depart="776.68" from="315658900#4" to="464461045" type="passenger"/>
    <trip id="241" depart="779.92" from="243542154#0" to="-464459668#0" type="passenger"/>
    <trip id="242" depart="783.16" from="37399713#1" to="37399713#2" type="passenger"/>
    <trip id="243" depart="786.39" from="-464461046" to="-464459668#0" type="passenger"/>
    <trip id="244" depart="789.63" from="315658896#2" to="315658896#2" type="passenger"/>
    <trip id="245" depart="792.87" from="315658900#0" to="243542154#3" type="passenger"/>
    <trip id="246" depart="796.10" from="1339697075#1" to="-384030398" type="passenger"/>
    <trip id="247" depart="799.34" from="-464459667" to="-464459665" type="passenger"/>
    <trip id="248" depart="802.57" from="-464459665" to="-243542154#0" type="passenger"/>
    <trip id="249" depart="805.81" from="-315658900#7" to="-464459668#1" type="passenger"/>
    <trip id="250" depart="809.05" from="315658900#5" to="-318747848#1" type="passenger"/>
    <trip id="251" depart="812.28" from="318747850#0" to="-464459665" type="passenger"/>
    <trip id="252" depart="815.52" from="-464459667" to="315658900#4" type="passenger"/>
    <trip id="253" depart="818.75" from="318747848#1" to="-464459667" type="passenger"/>
    <trip id="254" depart="821.99" from="-315658900#5" to="-243542154#0" type="passenger"/>
    <trip id="255" depart="825.23" from="315658900#3" to="315658900#8" type="passenger"/>
    <trip id="256" depart="828.46" from="315658896#4" to="315658900#5" type="passenger"/>
    <trip id="257" depart="831.70" from="769488211" to="315658900#5" type="passenger"/>
    <trip id="258" depart="834.94" from="315658896#2" to="-315658896#1" type="passenger"/>
    <trip id="259" depart="838.17" from="315658896#1" to="315658896#2" type="passenger"/>
    <trip id="260" depart="841.41" from="-464459668#0" to="464459665" type="passenger"/>
    <trip id="261" depart="844.64" from="1339697074#0" to="1339697074#1" type="passenger"/>
    <trip id="262" depart="847.88" from="-243542154#3" to="315658900#7" type="passenger"/>
    <trip id="263" depart="851.12" from="-315658900#7" to="318747850#1" type="passenger"/>
    <trip id="264" depart="854.35" from="464459665" to="315658900#5" type="passenger"/>
    <trip id="265" depart="857.59" from="-315658900#8" to="-464459667" type="passenger"/>
    <trip id="266" depart="860.83" from="464459667" to="-315658896#0" type="passenger"/>
    <trip id="267" depart="864.06" from="315658900#4" to="315658896#5" type="passenger"/>
    <trip id="268" depart="867.30" from="464763971#2" to="379943751" type="passenger"/>
    <trip id="269" depart="870.53" from="315658900#3" to="-464459667" type="passenger"/>
    <trip id="270" depart="873.77" from="-464461046" to="-464459668#0" type="passenger"/>
    <trip id="271" depart="877.01" from="-464461046" to="-315658900#5" type="passenger"/>
    <trip id="272" depart="880.24" from="-315658896#5" to="315658896#5" type="passenger"/>
    <trip id="273" depart="883.48" from="464459667" to="-243542154#1" type="passenger"/>
    <trip id="274" depart="886.71" from="-315658900#8" to="464459668#2" type="passenger"/>
    <trip id="275" depart="889.95" from="315658896#3" to="-315658896#4" type="passenger"/>
    <trip id="276" depart="893.19" from="1339697074#1" to="379943751" type="passenger"/>
    <trip id="277" depart="896.42" from="-315658900#3" to="-315658900#0" type="passenger"/>
    <trip id="278" depart="899.66" from="-464459668#0" to="464459665" type="passenger"/>
    <trip id="279" depart="902.90" from="-243542154#2" to="315658900#3" type="passenger"/>
    <trip id="280" depart="906.13" from="-315658900#8" to="-243542154#2" type="passenger"/>
    <trip id="281" depart="909.37" from="318747850#0" to="-464459668#1" type="passenger"/>
    <trip id="282" depart="912.60" from="1339697075#1" to="773060732#1" type="passenger"/>
    <trip id="283" depart="915.84" from="464459667" to="-318747850#1" type="passenger"/>
    <trip id="284" depart="919.08" from="318747848#1" to="-464459665" type="passenger"/>
    <trip id="285" depart="922.31" from="315658900#1" to="315658900#3" type="passenger"/>
    <trip id="286" depart="925.55" from="1339697075#1" to="37399713#2" type="passenger"/>
    <trip id="287" depart="928.79" from="318747850#0" to="315658900#6" type="passenger"/>
    <trip id="288" depart="932.02" from="315658896#2" to="464459668#1" type="passenger"/>
    <trip id="289" depart="935.26" from="243542154#2" to="315658900#7" type="passenger"/>
    <trip id="290" depart="938.49" from="315658900#0" to="243542154#1" type="passenger"/>
    <trip id="291" depart="941.73" from="-315658900#7" to="-318747848#1" type="passenger"/>
    <trip id="292" depart="944.97" from="315658900#2" to="-318747850#1" type="passenger"/>
    <trip id="293" depart="948.20" from="315658900#2" to="315658900#5" type="passenger"/>
    <trip id="294" depart="951.44" from="-464459667" to="-464459667" type="passenger"/>
    <trip id="295" depart="954.67" from="-315658896#4" to="315658900#5" type="passenger"/>
    <trip id="296" depart="957.91" from="464459667" to="-315658900#3" type="passenger"/>
    <trip id="297" depart="961.15" from="37399713#2" to="773060732#3" type="passenger"/>
    <trip id="298" depart="964.38" from="-464461046" to="-464459667" type="passenger"/>
    <trip id="299" depart="967.62" from="384030398" to="37399713#3" type="passenger"/>
    <trip id="300" depart="970.86" from="-464461046" to="-315658896#2" type="passenger"/>
    <trip id="301" depart="974.09" from="244399270" to="394102601" type="passenger"/>
    <trip id="302" depart="977.33" from="464459665" to="-315658896#0" type="passenger"/>
    <trip id="303" depart="980.56" from="315658896#4" to="-464459668#0" type="passenger"/>
    <trip id="304" depart="983.80" from="318747848#1" to="-464459668#1" type="passenger"/>
    <trip id="305" depart="987.04" from="315658896#1" to="315658896#2" type="passenger"/>
    <trip id="306" depart="990.27" from="-243542154#2" to="-464461045" type="passenger"/>
    <trip id="307" depart="993.51" from="-318747850#1" to="-315658900#1" type="passenger"/>
    <trip id="308" depart="996.74" from="315658900#5" to="315658900#4" type="passenger"/>
    <trip id="309" depart="999.98" from="-464461046" to="464461045" type="passenger"/>
    <trip id="310" depart="1003.22" from="-464459665" to="-243542154#0" type="passenger"/>
    <trip id="311" depart="1006.45" from="318747848#0" to="-315658900#3" type="passenger"/>
    <trip id="312" depart="1009.69" from="-464459667" to="-315658900#5" type="passenger"/>
    <trip id="313" depart="1012.93" from="37399713#0" to="37399713#3" type="passenger"/>
    <trip id="314" depart="1016.16" from="-318747850#1" to="464461045" type="passenger"/>
    <trip id="315" depart="1019.40" from="464459665" to="-315658900#4" type="passenger"/>
    <trip id="316" depart="1022.63" from="243542154#2" to="315658900#8" type="passenger"/>
    <trip id="317" depart="1025.87" from="-315658900#3" to="318747850#1" type="passenger"/>
    <trip id="318" depart="1029.11" from="464459668#0" to="-464461045" type="passenger"/>
    <trip id="319" depart="1032.34" from="-243542154#2" to="464459667" type="passenger"/>
    <trip id="320" depart="1035.58" from="243542154#0" to="315658900#7" type="passenger"/>
    <trip id="321" depart="1038.82" from="315658900#1" to="-315658896#0" type="passenger"/>
    <trip id="322" depart="1042.05" from="384030398" to="244399270" type="passenger"/>
    <trip id="323" depart="1045.29" from="-315658900#6" to="-318747850#0" type="passenger"/>