<?xml version='1.0' encoding='utf-8'?>
<routes>
  <vType id="adult" vClass="pedestrian" minGap="0.25" width="0.5" length="0.25" maxSpeed="1.5" speedDev="0.1" />
  <vType id="elderly" vClass="pedestrian" minGap="0.25" width="0.5" length="0.25" maxSpeed="1.13" speedDev="0.15" color="255,0,0" />
  <person id="ped_0" depart="7.76" type="adult">
    <walk from="-381458593" to="381458586" />
  </person>
  <person id="ped_1" depart="10.89" type="elderly">
    <walk from="-381458593" to="381458586" />
  </person>
  <person id="ped_2" depart="14.74" type="adult">
    <walk from="-381458593" to="381458586" />
  </person>
  <person id="ped_3" depart="30.18" type="adult">
    <walk from="-381458593" to="381458586" />
  </person>
  <person id="ped_4" depart="34.36" type="elderly">
    <walk from="-381458593" to="381458586" />
  </person>
  <person id="ped_5" depart="46.76" type="adult">
    <walk from="-381458593" to="381458586" />
  </person>
  <person id="ped_6" depart="61.27" type="adult">
    <walk from="-381458593" to="381458586" />
  </person>
  <person id="ped_7" depart="65.03" type="elderly">
    <walk from="-381458593" to="381458586" />
  </person>
  <person id="ped_8" depart="71.13" type="adult">
    <walk from="-381458593" to="381458586" />
  </person>
  <person id="ped_9" depart="75.72" type="adult">
    <walk from="-381458593" to="381458586" />
  </person>
  <person id="ped_10" depart="78.98" type="elderly">
    <walk from="-381458593" to="381458586" />
  </person>
  <person id="ped_11" depart="80.21" type="elderly">
    <walk from="-381458593" to="381458586" />
  </person>
  <person id="ped_12" depart="81.99" type="adult">
    <walk from="-381458593" to="381458586" />
  </person>
  <person id="ped_13" depart="82.19" type="adult">
    <walk from="-381458593" to="381458586" />
  </person>
  <person id="ped_14" depart="86.40" type="elderly">
    <walk from="-381458593" to="381458586" />
  </person>
  <person id="ped_15" depart="90.02" type="adult">
    <walk from="-381458593" to="381458586" />
  </person>
  <person id="ped_16" depart="91.48" type="adult">
    <walk from="-381458593" to="381458586" />
  </person>
  <person id="ped_17" depart="93.25" type="adult">
    <walk from="-381458593" to="381458586" />
  </person>
  <person id="ped_18" depart="99.52" type="adult">
    <walk from="-381458593" to="381458586" />
  </person>
  <person id="ped_19" depart="112.91" type="adult">
    <walk from="-381458593" to="381458586" />
  </person>
  <person id="ped_20" depart="120.42" type="adult">
    <walk from="-381458593" to="381458586" />
  </person>
  <person id="ped_21" depart="121.62" type="adult">
    <walk from="-381458593" to="381458586" />
  </person>
  <person id="ped_22" depart="123.41" type="adult">
    <walk from="-381458593" to="381458586" />
  </person>
  <person id="ped_23" depart="126.13" type="elderly">
    <walk from="-381458593" to="381458586" />
  </person>
  <person id="ped_24" depart="129.14" type="elderly">
    <walk from="-381458593" to="381458586" />
  </person>
  <person id="ped_25" depart="139.38" type="elderly">
    <walk from="-381458593" to="381458586" />
  </person>
  <person id="ped_26" depart="147.87" type="elderly">
    <walk from="-381458593" to="381458586" />
  </person>
  <person id="ped_27" depart="151.32" type="adult">
    <walk from="-381458593" to="381458586" />
  </person>
  <person id="ped_28" depart="153.16" type="elderly">
    <walk from="-381458593" to="381458586" />
  </person>
  <person id="ped_29" depart="167.65" type="adult">
    <walk from="-381458593" to="381458586" />
  </person>
  <person id="ped_30" depart="168.64" type="adult">
    <walk from="-381458593" to="381458586" />
  </person>
  <person id="ped_31" depart="171.01" type="adult">
    <walk from="-381458593" to="381458586" />
  </person>
  <person id="ped_32" depart="179.28" type="adult">
    <walk from="-381458593" to="381458586" />
  </person>
  <person id="ped_33" depart="184.69" type="adult">
    <walk from="-381458593" to="381458586" />
  </person>
  <person id="ped_34" depart="185.00" type="adult">
    <walk from="-381458593" to="381458586" />
  </person>
  <person id="ped_35" depart="192.68" type="adult">
    <walk from="-381458593" to="381458586" />
  </person>
  <person id="ped_36" depart="197.44" type="adult">
    <walk from="-381458593" to="381458586" />
  </person>
  <person id="ped_37" depart="208.76" type="adult">
    <walk from="-381458593" to="381458586" />
  </person>
  <person id="ped_38" depart="219.54" type="adult">
    <walk from="-381458593" to="381458586" />
  </person>
  <person id="ped_39" depart="238.08" type="elderly">
    <walk from="-381458593" to="381458586" />
  </person>
  <person id="ped_40" depart="238.71" type="elderly">
    <walk from="-381458593" to="381458586" />
  </person>
  <person id="ped_41" depart="241.80" type="adult">
    <walk from="-381458593" to="381458586" />
  </person>
  <person id="ped_42" depart="243.51" type="adult">
    <walk from="-381458593" to="381458586" />
  </person>
  <person id="ped_43" depart="250.28" type="adult">
    <walk from="-381458593" to="381458586" />
  </person>
  <person id="ped_44" depart="256.37" type="adult">
    <walk from="-381458593" to="381458586" />
  </person>
  <person id="ped_45" depart="257.91" type="adult">
    <walk from="-381458593" to="381458586" />
  </person>
  <person id="ped_46" depart="266.61" type="adult">
    <walk from="-381458593" to="381458586" />
  </person>
  <person id="ped_47" depart="290.15" type="adult">
    <walk from="-381458593" to="381458586" />
  </person>
  <person id="ped_48" depart="295.46" type="elderly">
    <walk from="-381458593" to="381458586" />
  </person>
  <person id="ped_49" depart="297.27" type="adult">
    <walk from="-381458593" to="381458586" />
  </person>
  <person id="ped_50" depart="298.85" type="elderly">
    <walk from="-381458593" to="381458586" />
  </person>
  <person id="ped_51" depart="313.13" type="adult">
    <walk from="-381458593" to="381458586" />
  </person>
  <person id="ped_52" depart="317.34" type="adult">
    <walk from="-381458593" to="381458586" />
  </person>
  <person id="ped_53" depart="322.74" type="adult">
    <walk from="-381458593" to="381458586" />
  </person>
  <person id="ped_54" depart="326.41" type="adult">
    <walk from="-381458593" to="381458586" />
  </person>
  <person id="ped_55" depart="328.13" type="adult">
    <walk from="-381458593" to="381458586" />
  </person>
  <person id="ped_56" depart="334.35" type="adult">
    <walk from="-381458593" to="381458586" />
  </person>
  <person id="ped_57" depart="338.70" type="elderly">
    <walk from="-381458593" to="381458586" />
  </person>
  <person id="ped_58" depart="343.72" type="adult">
    <walk from="-381458593" to="381458586" />
  </person>
  <person id="ped_59" depart="345.08" type="adult">
    <walk from="-381458593" to="381458586" />
  </person>
  <person id="ped_60" depart="347.78" type="adult">
    <walk from="-381458593" to="381458586" />
  </person>
  <person id="ped_61" depart="357.51" type="adult">
    <walk from="-381458593" to="381458586" />
  </person>
  <person id="ped_62" depart="358.29" type="adult">
    <walk from="-381458593" to="381458586" />
  </person>
  <person id="ped_63" depart="362.93" type="elderly">
    <walk from="-381458593" to="381458586" />
  </person>
  <person id="ped_64" depart="366.63" type="elderly">
    <walk from="-381458593" to="381458586" />
  </person>
  <person id="ped_65" depart="375.17" type="adult">
    <walk from="-381458593" to="381458586" />
  </person>
  <person id="ped_66" depart="381.82" type="adult">
    <walk from="-381458593" to="381458586" />
  </person>
  <person id="ped_67" depart="384.62" type="adult">
    <walk from="-381458593" to="381458586" />
  </person>
  <person id="ped_68" depart="392.76" type="elderly">
    <walk from="-381458593" to="381458586" />
  </person>
  <person id="ped_69" depart="398.98" type="adult">
    <walk from="-381458593" to="381458586" />
  </person>
  <person id="ped_70" depart="401.68" type="adult">
    <walk from="-381458593" to="381458586" />
  </person>
  <person id="ped_71" depart="402.75" type="adult">
    <walk from="-381458593" to="381458586" />
  </person>
  <person id="ped_72" depart="410.57" type="adult">
    <walk from="-381458593" to="381458586" />
  </person>
  <person id="ped_73" depart="434.70" type="elderly">
    <walk from="-381458593" to="381458586" />
  </person>
  <person id="ped_74" depart="438.19" type="adult">
    <walk from="-381458593" to="381458586" />
  </person>
  <person id="ped_75" depart="439.82" type="adult">
    <walk from="-381458593" to="381458586" />
  </person>
  <person id="ped_76" depart="442.89" type="adult">
    <walk from="-381458593" to="381458586" />
  </person>
  <person id="ped_77" depart="467.48" type="adult">
    <walk from="-381458593" to="381458586" />
  </person>
  <person id="ped_78" depart="469.29" type="adult">
    <walk from="-381458593" to="381458586" />
  </person>
  <person id="ped_79" depart="471.65" type="adult">
    <walk from="-381458593" to="381458586" />
  </person>
  <person id="ped_80" depart="480.43" type="adult">
    <walk from="-381458593" to="381458586" />
  </person>
  <person id="ped_81" depart="481.77" type="adult">
    <walk from="-381458593" to="381458586" />
  </person>
  <person id="ped_82" depart="482.55" type="adult">
    <walk from="-381458593" to="381458586" />
  </person>
  <person id="ped_83" depart="484.62" type="adult">
    <walk from="-381458593" to="381458586" />
  </person>
  <person id="ped_84" depart="485.69" type="adult">
    <walk from="-381458593" to="381458586" />
  </person>
  <person id="ped_85" depart="487.74" type="adult">
    <walk from="-381458593" to="381458586" />
  </person>
  <person id="ped_86" depart="487.76" type="adult">
    <walk from="-381458593" to="381458586" />
  </person>
  <person id="ped_87" depart="489.54" type="adult">
    <walk from="-381458593" to="381458586" />
  </person>
  <person id="ped_88" depart="489.96" type="adult">
    <walk from="-381458593" to="381458586" />
  </person>
  <person id="ped_89" depart="490.46" type="adult">
    <walk from="-381458593" to="381458586" />
  </person>
  <person id="ped_90" depart="490.95" type="adult">
    <walk from="-381458593" to="381458586" />
  </person>
  <person id="ped_91" depart="494.22" type="elderly">
    <walk from="-381458593" to="381458586" />
  </person>
  <person id="ped_92" depart="507.63" type="adult">
    <walk from="-381458593" to="381458586" />
  </person>
  <person id="ped_93" depart="511.39" type="adult">
    <walk from="-381458593" to="381458586" />
  </person>
  <person id="ped_94" depart="516.65" type="adult">
    <walk from="-381458593" to="381458586" />
  </person>
  <person id="ped_95" depart="517.44" type="elderly">
    <walk from="-381458593" to="381458586" />
  </person>
  <person id="ped_96" depart="530.02" type="adult">
    <walk from="-381458593" to="381458586" />
  </person>
  <person id="ped_97" depart="537.50" type="adult">
    <walk from="-381458593" to="381458586" />
  </person>
  <person id="ped_98" depart="546.10" type="elderly">
    <walk from="-381458593" to="381458586" />
  </person>
  <person id="ped_99" depart="555.88" type="adult">
    <walk from="-381458593" to="381458586" />
  </person>
  <person id="ped_100" depart="556.55" type="adult">
    <walk from="-381458593" to="381458586" />
  </person>
  <person id="ped_101" depart="558.41" type="adult">
    <walk from="-381458593" to="381458586" />
  </person>
  <person id="ped_102" depart="563.41" type="elderly">
    <walk from="-381458593" to="381458586" />
  </person>
  <person id="ped_103" depart="566.29" type="adult">
    <walk from="-381458593" to="381458586" />
  </person>
  <person id="ped_104" depart="570.55" type="adult">
    <walk from="-381458593" to="381458586" />
  </person>
  <person id="ped_105" depart="574.15" type="adult">
    <walk from="-381458593" to="381458586" />
  </person>
  <person id="ped_106" depart="583.22" type="adult">
    <walk from="-381458593" to="381458586" />
  </person>
  <person id="ped_107" depart="588.54" type="adult">
    <walk from="-381458593" to="381458586" />
  </person>
  <person id="ped_108" depart="589.03" type="adult">
    <walk from="-381458593" to="381458586" />
  </person>
  <person id="ped_109" depart="590.00" type="elderly">
    <walk from="-381458593" to="381458586" />
  </person>
  <person id="ped_110" depart="601.62" type="adult">
    <walk from="-381458593" to="381458586" />
  </person>
  <person id="ped_111" depart="609.39" type="adult">
    <walk from="-381458593" to="381458586" />
  </person>
  <person id="ped_112" depart="618.21" type="adult">
    <walk from="-381458593" to="381458586" />
  </person>
  <person id="ped_113" depart="621.51" type="adult">
    <walk from="-381458593" to="381458586" />
  </person>
  <person id="ped_114" depart="622.29" type="adult">
    <walk from="-381458593" to="381458586" />
  </person>
  <person id="ped_115" depart="628.38" type="adult">
    <walk from="-381458593" to="381458586" />
  </person>
  <person id="ped_116" depart="636.40" type="elderly">
    <walk from="-381458593" to="381458586" />
  </person>
  <person id="ped_117" depart="637.39" type="adult">
    <walk from="-381458593" to="381458586" />
  </person>
  <person id="ped_118" depart="656.24" type="elderly">
    <walk from="-381458593" to="381458586" />
  </person>
  <person id="ped_119" depart="658.01" type="adult">
    <walk from="-381458593" to="381458586" />
  </person>
  <person id="ped_120" depart="666.18" type="adult">
    <walk from="-381458593" to="381458586" />
  </person>
  <person id="ped_121" depart="677.56" type="adult">
    <walk from="-381458593" to="381458586" />
  </person>
  <person id="ped_122" depart="686.52" type="adult">
    <walk from="-381458593" to="381458586" />
  </person>
  <person id="ped_123" depart="690.97" type="adult">
    <walk from="-381458593" to="381458586" />
  </person>
  <person id="ped_124" depart="694.31" type="elderly">
    <walk from="-381458593" to="381458586" />
  </person>
  <person id="ped_125" depart="695.66" type="elderly">
    <walk from="-381458593" to="381458586" />
  </person>
  <person id="ped_126" depart="698.04" type="elderly">
    <walk from="-381458593" to="381458586" />
  </person>
  <person id="ped_127" depart="703.69" type="adult">
    <walk from="-381458593" to="381458586" />
  </person>
  <person id="ped_128" depart="705.24" type="adult">
    <walk from="-381458593" to="381458586" />
  </person>
  <person id="ped_129" depart="708.44" type="adult">
    <walk from="-381458593" to="381458586" />
  </person>
  <person id="ped_130" depart="712.46" type="adult">
    <walk from="-381458593" to="381458586" />
  </person>
  <person id="ped_131" depart="718.61" type="adult">
    <walk from="-381458593" to="381458586" />
  </person>
  <person id="ped_132" depart="724.86" type="adult">
    <walk from="-381458593" to="381458586" />
  </person>
  <person id="ped_133" depart="728.69" type="adult">
    <walk from="-381458593" to="381458586" />
  </person>
  <person id="ped_134" depart="737.86" type="adult">
    <walk from="-381458593" to="381458586" />
  </person>
  <person id="ped_135" depart="739.70" type="elderly">
    <walk from="-381458593" to="381458586" />
  </person>
  <person id="ped_136" depart="744.38" type="adult">
    <walk from="-381458593" to="381458586" />
  </person>
  <person id="ped_137" depart="750.32" type="adult">
    <walk from="-381458593" to="381458586" />
  </person>
  <person id="ped_138" depart="757.45" type="adult">
    <walk from="-381458593" to="381458586" />
  </person>
  <person id="ped_139" depart="763.29" type="adult">
    <walk from="-381458593" to="381458586" />
  </person>
  <person id="ped_140" depart="767.05" type="adult">
    <walk from="-381458593" to="381458586" />
  </person>
  <person id="ped_141" depart="773.03" type="adult">
    <walk from="-381458593" to="381458586" />
  </person>
  <person id="ped_142" depart="773.39" type="adult">
    <walk from="-381458593" to="381458586" />
  </person>
  <person id="ped_143" depart="780.59" type="elderly">
    <walk from="-381458593" to="381458586" />
  </person>
  <person id="ped_144" depart="784.30" type="elderly">
    <walk from="-381458593" to="381458586" />
  </person>
  <person id="ped_145" depart="785.95" type="adult">
    <walk from="-381458593" to="381458586" />
  </person>
  <person id="ped_146" depart="791.35" type="adult">
    <walk from="-381458593" to="381458586" />
  </person>
  <person id="ped_147" depart="793.51" type="adult">
    <walk from="-381458593" to="381458586" />
  </person>
  <person id="ped_148" depart="796.31" type="adult">
    <walk from="-381458593" to="381458586" />
  </person>
  <person id="ped_149" depart="810.34" type="adult">
    <walk from="-381458593" to="381458586" />
  </person>
  <person id="ped_150" depart="811.20" type="adult">
    <walk from="-381458593" to="381458586" />
  </person>
  <person id="ped_151" depart="816.39" type="adult">
    <walk from="-381458593" to="381458586" />
  </person>
  <person id="ped_152" depart="816.59" type="adult">
    <walk from="-381458593" to="381458586" />
  </person>
  <person id="ped_153" depart="816.73" type="adult">
    <walk from="-381458593" to="381458586" />
  </person>
  <person id="ped_154" depart="818.58" type="elderly">
    <walk from="-381458593" to="381458586" />
  </person>
  <person id="ped_155" depart="828.63" type="adult">
    <walk from="-381458593" to="381458586" />
  </person>
  <person id="ped_156" depart="841.87" type="adult">
    <walk from="-381458593" to="381458586" />
  </person>
  <person id="ped_157" depart="844.77" type="adult">
    <walk from="-381458593" to="381458586" />
  </person>
  <person id="ped_158" depart="851.93" type="adult">
    <walk from="-381458593" to="381458586" />
  </person>
  <person id="ped_159" depart="859.09" type="adult">
    <walk from="-381458593" to="381458586" />
  </person>
  <person id="ped_160" depart="863.52" type="adult">
    <walk from="-381458593" to="381458586" />
  </person>
  <person id="ped_161" depart="865.33" type="adult">
    <walk from="-381458593" to="381458586" />
  </person>
  <person id="ped_162" depart="871.01" type="adult">
    <walk from="-381458593" to="381458586" />
  </person>
  <person id="ped_163" depart="881.03" type="adult">
    <walk from="-381458593" to="381458586" />
  </person>
  <person id="ped_164" depart="888.27" type="adult">
    <walk from="-381458593" to="381458586" />
  </person>
  <person id="ped_165" depart="890.26" type="elderly">
    <walk from="-381458593" to="381458586" />
  </person>
  <person id="ped_166" depart="890.54" type="adult">
    <walk from="-381458593" to="381458586" />
  </person>
  <person id="ped_167" depart="894.08" type="elderly">
    <walk from="-381458593" to="381458586" />
  </person>
  <person id="ped_168" depart="901.85" type="elderly">
    <walk from="-381458593" to="381458586" />
  </person>
  <person id="ped_169" depart="911.25" type="adult">
    <walk from="-381458593" to="381458586" />
  </person>
  <person id="ped_170" depart="932.18" type="adult">
    <walk from="-381458593" to="381458586" />
  </person>
  <person id="ped_171" depart="943.61" type="adult">
    <walk from="-381458593" to="381458586" />
  </person>
  <person id="ped_172" depart="952.82" type="adult">
    <walk from="-381458593" to="381458586" />
  </person>
  <person id="ped_173" depart="954.60" type="adult">
    <walk from="-381458593" to="381458586" />
  </person>
  <person id="ped_174" depart="981.55" type="adult">
    <walk from="-381458593" to="381458586" />
  </person>
  <person id="ped_175" depart="983.39" type="adult">
    <walk from="-381458593" to="381458586" />
  </person>
  <person id="ped_176" depart="991.94" type="adult">
    <walk from="-381458593" to="381458586" />
  </person>
  <person id="ped_177" depart="996.52" type="adult">
    <walk from="-381458593" to="381458586" />
  </person>
  <person id="ped_178" depart="1010.02" type="adult">
    <walk from="-381458593" to="381458586" />
  </person>
  <person id="ped_179" depart="1016.73" type="adult">
    <walk from="-381458593" to="381458586" />
  </person>
  <person id="ped_180" depart="1021.94" type="adult">
    <walk from="-381458593" to="381458586" />
  </person>
  <person id="ped_181" depart="1022.59" type="adult">
    <walk from="-381458593" to="381458586" />
  </person>
  <person id="ped_182" depart="1022.79" type="adult">
    <walk from="-381458593" to="381458586" />
  </person>
  <person id="ped_183" depart="1025.98" type="adult">
    <walk from="-381458593" to="381458586" />
  </person>
  <person id="ped_184" depart="1026.01" type="adult">
    <walk from="-381458593" to="381458586" />
  </person>
  <person id="ped_185" depart="1041.03" type="adult">
    <walk from="-381458593" to="381458586" />
  </person>
  <person id="ped_186" depart="1059.44" type="elderly">
    <walk from="-381458593" to="381458586" />
  </person>
  <person id="ped_187" depart="1067.39" type="adult">
    <walk from="-381458593" to="381458586" />
  </person>
  <person id="ped_188" depart="1071.45" type="adult">
    <walk from="-381458593" to="381458586" />
  </person>
  <person id="ped_189" depart="1072.71" type="elderly">
    <walk from="-381458593" to="381458586" />
  </person>
  <person id="ped_190" depart="1081.57" type="elderly">
    <walk from="-381458593" to="381458586" />
  </person>
  <person id="ped_191" depart="1081.82" type="adult">
    <walk from="-381458593" to="381458586" />
  </person>
  <person id="ped_192" depart="1085.84" type="adult">
    <walk from="-381458593" to="381458586" />
  </person>
  <person id="ped_193" depart="1088.46" type="adult">
    <walk from="-381458593" to="381458586" />
  </person>
  <person id="ped_194" depart="1094.19" type="adult">
    <walk from="-381458593" to="381458586" />
  </person>
  <person id="ped_195" depart="1098.95" type="adult">
    <walk from="-381458593" to="381458586" />
  </person>
  <person id="ped_196" depart="1100.17" type="adult">
    <walk from="-381458593" to="381458586" />
  </person>
  <person id="ped_197" depart="1106.52" type="adult">
    <walk from="-381458593" to="381458586" />
  </person>
  <person id="ped_198" depart="1128.02" type="adult">
    <walk from="-381458593" to="381458586" />
  </person>
  <person id="ped_199" depart="1129.29" type="adult">
    <walk from="-381458593" to="381458586" />
  </person>
  <person id="ped_200" depart="1134.23" type="adult">
    <walk from="-381458593" to="381458586" />
  </person>
  <person id="ped_201" depart="1136.13" type="adult">
    <walk from="-381458593" to="381458586" />
  </person>
  <person id="ped_202" depart="1147.26" type="adult">
    <walk from="-381458593" to="381458586" />
  </person>
  <person id="ped_203" depart="1147.69" type="elderly">
    <walk from="-381458593" to="381458586" />
  </person>
  <person id="ped_204" depart="1150.43" type="adult">
    <walk from="-381458593" to="381458586" />
  </person>
  <person id="ped_205" depart="1153.54" type="adult">
    <walk from="-381458593" to="381458586" />
  </person>
  <person id="ped_206" depart="1158.62" type="adult">
    <walk from="-381458593" to="381458586" />
  </person>
  <person id="ped_207" depart="1164.83" type="adult">
    <walk from="-381458593" to="381458586" />
  </person>
  <person id="ped_208" depart="1168.51" type="adult">
    <walk from="-381458593" to="381458586" />
  </person>
  <person id="ped_209" depart="1171.06" type="adult">
    <walk from="-381458593" to="381458586" />
  </person>
  <person id="ped_210" depart="1171.55" type="adult">
    <walk from="-381458593" to="381458586" />
  </person>
  <person id="ped_211" depart="1185.96" type="adult">
    <walk from="-381458593" to="381458586" />
  </person>
  <person id="ped_212" depart="1198.18" type="adult">
    <walk from="-381458593" to="381458586" />
  </person>
  <person id="ped_213" depart="1200.48" type="adult">
    <walk from="-381458593" to="381458586" />
  </person>
  <person id="ped_214" depart="1212.18" type="adult">
    <walk from="-381458593" to="381458586" />
  </person>
  <person id="ped_215" depart="1220.92" type="adult">
    <walk from="-381458593" to="381458586" />
  </person>
  <person id="ped_216" depart="1225.78" type="adult">
    <walk from="-381458593" to="381458586" />
  </person>
  <person id="ped_217" depart="1246.28" type="elderly">
    <walk from="-381458593" to="381458586" />
  </person>
  <person id="ped_218" depart="1252.00" type="adult">
    <walk from="-381458593" to="381458586" />
  </person>
  <person id="ped_219" depart="1255.12" type="adult">
    <walk from="-381458593" to="381458586" />
  </person>
  <person id="ped_220" depart="1255.77" type="adult">
    <walk from="-381458593" to="381458586" />
  </person>
  <person id="ped_221" depart="1260.33" type="adult">
    <walk from="-381458593" to="381458586" />
  </person>
  <person id="ped_222" depart="1270.71" type="elderly">
    <walk from="-381458593" to="381458586" />
  </person>
  <person id="ped_223" depart="1274.03" type="adult">
    <walk from="-381458593" to="381458586" />
  </person>
  <person id="ped_224" depart="1283.81" type="adult">
    <walk from="-381458593" to="381458586" />
  </person>
  <person id="ped_225" depart="1286.74" type="adult">
    <walk from="-381458593" to="381458586" />
  </person>
  <person id="ped_226" depart="1328.43" type="adult">
    <walk from="-381458593" to="381458586" />
  </person>
  <person id="ped_227" depart="1332.07" type="adult">
    <walk from="-381458593" to="381458586" />
  </person>
  <person id="ped_228" depart="1334.46" type="adult">
    <walk from="-381458593" to="381458586" />
  </person>
  <person id="ped_229" depart="1337.05" type="adult">
    <walk from="-381458593" to="381458586" />
  </person>
  <person id="ped_230" depart="1338.25" type="adult">
    <walk from="-381458593" to="381458586" />
  </person>
  <person id="ped_231" depart="1357.57" type="adult">
    <walk from="-381458593" to="381458586" />
  </person>
  <person id="ped_232" depart="1361.11" type="adult">
    <walk from="-381458593" to="381458586" />
  </person>
  <person id="ped_233" depart="1361.12" type="adult">
    <walk from="-381458593" to="381458586" />
  </person>
  <person id="ped_234" depart="1366.73" type="adult">
    <walk from="-381458593" to="381458586" />
  </person>
  <person id="ped_235" depart="1366.76" type="adult">
    <walk from="-381458593" to="381458586" />
  </person>
  <person id="ped_236" depart="1370.93" type="elderly">
    <walk from="-381458593" to="381458586" />
  </person>
  <person id="ped_237" depart="1371.12" type="elderly">
    <walk from="-381458593" to="381458586" />
  </person>
  <person id="ped_238" depart="1396.80" type="adult">
    <walk from="-381458593" to="381458586" />
  </person>
  <person id="ped_239" depart="1397.78" type="adult">
    <walk from="-381458593" to="381458586" />
  </person>
  <person id="ped_240" depart="1399.72" type="adult">
    <walk from="-381458593" to="381458586" />
  </person>
  <person id="ped_241" depart="1403.48" type="adult">
    <walk from="-381458593" to="381458586" />
  </person>
  <person id="ped_242" depart="1403.92" type="adult">
    <walk from="-381458593" to="381458586" />
  </person>
  <person id="ped_243" depart="1408.48" type="adult">
    <walk from="-381458593" to="381458586" />
  </person>
  <person id="ped_244" depart="1410.56" type="adult">
    <walk from="-381458593" to="381458586" />
  </person>
  <person id="ped_245" depart="1410.84" type="adult">
    <walk from="-381458593" to="381458586" />
  </person>
  <person id="ped_246" depart="1415.11" type="adult">
    <walk from="-381458593" to="381458586" />
  </person>
  <person id="ped_247" depart="1420.71" type="adult">
    <walk from="-381458593" to="381458586" />
  </person>
  <person id="ped_248" depart="1420.95" type="adult">
    <walk from="-381458593" to="381458586" />
  </person>
  <person id="ped_249" depart="1424.11" type="adult">
    <walk from="-381458593" to="381458586" />
  </person>
  <person id="ped_250" depart="1426.87" type="adult">
    <walk from="-381458593" to="381458586" />
  </person>
  <person id="ped_251" depart="1440.63" type="adult">
    <walk from="-381458593" to="381458586" />
  </person>
  <person id="ped_252" depart="1440.76" type="adult">
    <walk from="-381458593" to="381458586" />
  </person>
  <person id="ped_253" depart="1449.47" type="adult">
    <walk from="-381458593" to="381458586" />
  </person>
  <person id="ped_254" depart="1452.50" type="adult">
    <walk from="-381458593" to="381458586" />
  </person>
  <person id="ped_255" depart="1454.03" type="adult">
    <walk from="-381458593" to="381458586" />
  </person>
  <person id="ped_256" depart="1454.58" type="adult">
    <walk from="-381458593" to="381458586" />
  </person>
  <person id="ped_257" depart="1466.38" type="adult">
    <walk from="-381458593" to="381458586" />
  </person>
  <person id="ped_258" depart="1468.70" type="adult">
    <walk from="-381458593" to="381458586" />
  </person>
  <person id="ped_259" depart="1482.90" type="adult">
    <walk from="-381458593" to="381458586" />
  </person>
  <person id="ped_260" depart="1483.87" type="adult">
    <walk from="-381458593" to="381458586" />
  </person>
  <person id="ped_261" depart="1486.30" type="adult">
    <walk from="-381458593" to="381458586" />
  </person>
  <person id="ped_262" depart="1502.26" type="adult">
    <walk from="-381458593" to="381458586" />
  </person>
  <person id="ped_263" depart="1508.69" type="adult">
    <walk from="-381458593" to="381458586" />
  </person>
  <person id="ped_264" depart="1519.48" type="adult">
    <walk from="-381458593" to="381458586" />
  </person>
  <person id="ped_265" depart="1525.19" type="adult">
    <walk from="-381458593" to="381458586" />
  </person>
  <person id="ped_266" depart="1528.87" type="adult">
    <walk from="-381458593" to="381458586" />
  </person>