<?xml version="1.0" encoding="UTF-8"?>

<!-- generated on 2026-04-17 02:58:29.271847 by Eclipse SUMO randomTrips.py v1.26.0
<configuration>
    <net-file value="/Users/junlee/Desktop/2026-1/js/result/tradeoff_pet_top12_seed12_60min_20260417_025716/sumo_nets/cw_8430/network.net.xml"/>
    <output-trip-file value="/Users/junlee/Desktop/2026-1/js/result/tradeoff_pet_top12_seed12_60min_20260417_025716/sumo_nets/cw_8430/routes_seed48.trips.xml"/>
    <route-file value="/Users/junlee/Desktop/2026-1/js/result/tradeoff_pet_top12_seed12_60min_20260417_025716/sumo_nets/cw_8430/routes_seed48.rou.xml"/>
    <vehicle-class value="passenger"/>
    <seed value="48"/>
    <period value="1.9468225591137536"/>
</configuration>
-->

<routes xmlns:xsi="http://www.w3.org/2001/XMLSchema-instance" xsi:noNamespaceSchemaLocation="http://sumo.dlr.de/xsd/routes_file.xsd">
    <vType id="passenger" vClass="passenger"/>
    <trip id="0" depart="0.00" from="218960891#0" to="-381452118#5" type="passenger"/>
    <trip id="1" depart="1.95" from="381458586" to="-381741927" type="passenger"/>
    <trip id="2" depart="3.89" from="519097168#4" to="-381452185#1" type="passenger"/>
    <trip id="3" depart="5.84" from="381458600#1" to="-381452126#1" type="passenger"/>
    <trip id="4" depart="7.79" from="913722640" to="420103662#1" type="passenger"/>
    <trip id="5" depart="9.73" from="-381452100#0" to="381452118#7" type="passenger"/>
    <trip id="6" depart="11.68" from="-381458583#1" to="218681380#2" type="passenger"/>
    <trip id="7" depart="13.63" from="381746325#1" to="-381452123#1" type="passenger"/>
    <trip id="8" depart="15.57" from="-381458583#1" to="-218960891#1" type="passenger"/>
    <trip id="9" depart="17.52" from="-218910324#4" to="117770556#4" type="passenger"/>
    <trip id="10" depart="19.47" from="-381452126#0" to="-381452118#5" type="passenger"/>
    <trip id="11" depart="21.42" from="381458583#1" to="-381458608#0" type="passenger"/>
    <trip id="12" depart="23.36" from="-381746313" to="-381746311" type="passenger"/>
    <trip id="13" depart="25.31" from="381746325#0" to="-381458600#0" type="passenger"/>
    <trip id="14" depart="27.26" from="381452126#0" to="519097168#0" type="passenger"/>
    <trip id="15" depart="29.20" from="218960891#4" to="-381458603#0" type="passenger"/>
    <trip id="16" depart="31.15" from="-381452118#5" to="381452123#0" type="passenger"/>
    <trip id="17" depart="33.10" from="-381452165#1" to="-458731949" type="passenger"/>
    <trip id="18" depart="35.04" from="381746304#0" to="381458600#1" type="passenger"/>
    <trip id="19" depart="36.99" from="-381458600#1" to="-420103662#1" type="passenger"/>
    <trip id="20" depart="38.94" from="-381458603#1" to="-381458608#0" type="passenger"/>
    <trip id="21" depart="40.88" from="218681380#2" to="-381452118#0" type="passenger"/>
    <trip id="22" depart="42.83" from="-381452100#1" to="-381452123#0" type="passenger"/>
    <trip id="23" depart="44.78" from="-381746311" to="218910324#0" type="passenger"/>
    <trip id="24" depart="46.72" from="-381746304#1" to="-519097168#1" type="passenger"/>
    <trip id="25" depart="48.67" from="381458603#1" to="381458600#1" type="passenger"/>
    <trip id="26" depart="50.62" from="-519097168#1" to="420187962#1" type="passenger"/>
    <trip id="27" depart="52.56" from="-218681380#0" to="218960891#3" type="passenger"/>
    <trip id="28" depart="54.51" from="381452185#1" to="-458731949" type="passenger"/>
    <trip id="29" depart="56.46" from="-519097168#2" to="-381458593" type="passenger"/>
    <trip id="30" depart="58.40" from="381458603#0" to="-381452185#1" type="passenger"/>
    <trip id="31" depart="60.35" from="218960891#3" to="381458583#0" type="passenger"/>
    <trip id="32" depart="62.30" from="381746311" to="519097167#1" type="passenger"/>
    <trip id="33" depart="64.25" from="-381452126#0" to="-381452126#0" type="passenger"/>
    <trip id="34" depart="66.19" from="-381458600#1" to="381746304#1" type="passenger"/>
    <trip id="35" depart="68.14" from="218960891#6" to="381458586" type="passenger"/>
    <trip id="36" depart="70.09" from="-519097168#4" to="218681380#5" type="passenger"/>
    <trip id="37" depart="72.03" from="920025287#1" to="-420314177" type="passenger"/>
    <trip id="38" depart="73.98" from="-519097168#2" to="381452123#0" type="passenger"/>
    <trip id="39" depart="75.93" from="420103662#1" to="420187963" type="passenger"/>
    <trip id="40" depart="77.87" from="218910324#1" to="-218910324#0" type="passenger"/>
    <trip id="41" depart="79.82" from="-218960891#5" to="-218681380#5" type="passenger"/>
    <trip id="42" depart="81.77" from="-218681380#0" to="381452118#6" type="passenger"/>
    <trip id="43" depart="83.71" from="-420187962#1" to="-218960891#5" type="passenger"/>
    <trip id="44" depart="85.66" from="381746303#0" to="218960891#7" type="passenger"/>
    <trip id="45" depart="87.61" from="218681380#4" to="381746313" type="passenger"/>
    <trip id="46" depart="89.55" from="-218960891#6" to="-913722640" type="passenger"/>
    <trip id="47" depart="91.50" from="218960891#6" to="117770556#1" type="passenger"/>
    <trip id="48" depart="93.45" from="-381458583#1" to="381458600#0" type="passenger"/>
    <trip id="49" depart="95.39" from="420103662#0" to="920025287#4" type="passenger"/>
    <trip id="50" depart="97.34" from="381452118#0" to="-381452185#1" type="passenger"/>
    <trip id="51" depart="99.29" from="-381458592#0" to="-218681380#5" type="passenger"/>
    <trip id="52" depart="101.23" from="920025287#2" to="-519097168#0" type="passenger"/>
    <trip id="53" depart="103.18" from="-381458600#0" to="-218681380#3" type="passenger"/>
    <trip id="54" depart="105.13" from="-381746304#0" to="920025287#0" type="passenger"/>
    <trip id="55" depart="107.08" from="381452165#2" to="-218960891#4" type="passenger"/>
    <trip id="56" depart="109.02" from="-381458586" to="519097168#1" type="passenger"/>
    <trip id="57" depart="110.97" from="-381746304#0" to="381458592#5" type="passenger"/>
    <trip id="58" depart="112.92" from="381452126#1" to="-218960891#1" type="passenger"/>
    <trip id="59" depart="114.86" from="420187962#1" to="381746313" type="passenger"/>
    <trip id="60" depart="116.81" from="519097168#1" to="-218960891#7" type="passenger"/>
    <trip id="61" depart="118.76" from="-381458587" to="-381746303#1" type="passenger"/>
    <trip id="62" depart="120.70" from="381746304#1" to="218910324#5" type="passenger"/>
    <trip id="63" depart="122.65" from="913722640" to="381458600#0" type="passenger"/>
    <trip id="64" depart="124.60" from="-218960891#1" to="218960891#5" type="passenger"/>
    <trip id="65" depart="126.54" from="-218960891#4" to="381746304#0" type="passenger"/>
    <trip id="66" depart="128.49" from="-218681380#2" to="-381458603#0" type="passenger"/>
    <trip id="67" depart="130.44" from="381452118#3" to="381746308" type="passenger"/>
    <trip id="68" depart="132.38" from="-381452118#1" to="381746304#1" type="passenger"/>
    <trip id="69" depart="134.33" from="-218960891#6" to="-420187962#1" type="passenger"/>
    <trip id="70" depart="136.28" from="381458603#1" to="-920025287#0" type="passenger"/>
    <trip id="71" depart="138.22" from="381452185#0" to="-920025287#2" type="passenger"/>
    <trip id="72" depart="140.17" from="381452165#1" to="381458603#0" type="passenger"/>
    <trip id="73" depart="142.12" from="117770556#3" to="-381452185#0" type="passenger"/>
    <trip id="74" depart="144.06" from="-218681380#2" to="-920025287#0" type="passenger"/>
    <trip id="75" depart="146.01" from="-381458583#2" to="-381741964" type="passenger"/>
    <trip id="76" depart="147.96" from="-381452185#1" to="-381452183#0" type="passenger"/>
    <trip id="77" depart="149.91" from="920025287#1" to="-381746304#1" type="passenger"/>
    <trip id="78" depart="151.85" from="519097167#1" to="-218910324#0" type="passenger"/>
    <trip id="79" depart="153.80" from="218910324#2" to="420187962#2" type="passenger"/>
    <trip id="80" depart="155.75" from="381452118#3" to="-381458583#2" type="passenger"/>
    <trip id="81" depart="157.69" from="381452165#2" to="218910324#2" type="passenger"/>
    <trip id="82" depart="159.64" from="218910324#0" to="218910324#3" type="passenger"/>
    <trip id="83" depart="161.59" from="381452185#1" to="381458603#0" type="passenger"/>
    <trip id="84" depart="163.53" from="-218910324#1" to="920025286" type="passenger"/>
    <trip id="85" depart="165.48" from="381452118#5" to="-420187962#0" type="passenger"/>
    <trip id="86" depart="167.43" from="-218960891#7" to="-381458590" type="passenger"/>
    <trip id="87" depart="169.37" from="-218910324#5" to="381458593" type="passenger"/>
    <trip id="88" depart="171.32" from="-381458583#2" to="-218960891#6" type="passenger"/>
    <trip id="89" depart="173.27" from="-920025287#2" to="381458583#1" type="passenger"/>
    <trip id="90" depart="175.21" from="-381452126#1" to="381746311" type="passenger"/>
    <trip id="91" depart="177.16" from="913722640" to="381452165#0" type="passenger"/>
    <trip id="92" depart="179.11" from="-218960891#2" to="381458592#4" type="passenger"/>
    <trip id="93" depart="181.05" from="420187962#0" to="-519097167#1" type="passenger"/>
    <trip id="94" depart="183.00" from="420187962#2" to="-381746313" type="passenger"/>
    <trip id="95" depart="184.95" from="-218960891#1" to="381746313" type="passenger"/>
    <trip id="96" depart="186.89" from="-381458592#4" to="420187962#1" type="passenger"/>
    <trip id="97" depart="188.84" from="381458590" to="-519097167#0" type="passenger"/>
    <trip id="98" depart="190.79" from="375125202" to="218910324#0" type="passenger"/>
    <trip id="99" depart="192.74" from="-381746313" to="381458608#0" type="passenger"/>
    <trip id="100" depart="194.68" from="381746313" to="-381458583#0" type="passenger"/>
    <trip id="101" depart="196.63" from="381452118#3" to="381458592#5" type="passenger"/>
    <trip id="102" depart="198.58" from="218681380#3" to="381458608#0" type="passenger"/>
    <trip id="103" depart="200.52" from="520307305#0" to="381458592#0" type="passenger"/>
    <trip id="104" depart="202.47" from="-381452165#1" to="520307305#1" type="passenger"/>
    <trip id="105" depart="204.42" from="420314177" to="-381741961" type="passenger"/>
    <trip id="106" depart="206.36" from="381746304#0" to="-218960891#2" type="passenger"/>
    <trip id="107" depart="208.31" from="381458608#1" to="218910324#5" type="passenger"/>
    <trip id="108" depart="210.26" from="420187962#3" to="-519097168#0" type="passenger"/>
    <trip id="109" depart="212.20" from="381458583#2" to="381741961" type="passenger"/>
    <trip id="110" depart="214.15" from="381746303#0" to="-381458592#5" type="passenger"/>
    <trip id="111" depart="216.10" from="-218960891#3" to="-458731949" type="passenger"/>
    <trip id="112" depart="218.04" from="-381458608#1" to="920025287#2" type="passenger"/>
    <trip id="113" depart="219.99" from="-218910324#4" to="381746313" type="passenger"/>
    <trip id="114" depart="221.94" from="381458592#0" to="381458608#1" type="passenger"/>
    <trip id="115" depart="223.88" from="-381452165#1" to="381746304#1" type="passenger"/>
    <trip id="116" depart="225.83" from="458731949" to="381746325#1" type="passenger"/>
    <trip id="117" depart="227.78" from="381452185#0" to="381452123#0" type="passenger"/>
    <trip id="118" depart="229.73" from="381741927" to="420187962#0" type="passenger"/>
    <trip id="119" depart="231.67" from="381746325#0" to="-218960891#1" type="passenger"/>
    <trip id="120" depart="233.62" from="-218910324#4" to="218910324#2" type="passenger"/>
    <trip id="121" depart="235.57" from="-218681380#0" to="381458583#2" type="passenger"/>
    <trip id="122" depart="237.51" from="381746304#1" to="-519097167#0" type="passenger"/>
    <trip id="123" depart="239.46" from="218681380#4" to="-381458592#0" type="passenger"/>
    <trip id="124" depart="241.41" from="-381741961" to="-519097167#0" type="passenger"/>
    <trip id="125" depart="243.35" from="-381458603#0" to="381458592#5" type="passenger"/>
    <trip id="126" depart="245.30" from="-381746303#1" to="-920025287#3" type="passenger"/>
    <trip id="127" depart="247.25" from="-519097168#4" to="218960891#6" type="passenger"/>
    <trip id="128" depart="249.19" from="218910324#3" to="-218681380#1" type="passenger"/>
    <trip id="129" depart="251.14" from="519097167#0" to="218910324#1" type="passenger"/>
    <trip id="130" depart="253.09" from="381452100#0" to="519097168#4" type="passenger"/>
    <trip id="131" depart="255.03" from="381452118#3" to="381452185#1" type="passenger"/>
    <trip id="132" depart="256.98" from="381458592#2" to="-420187962#0" type="passenger"/>
    <trip id="133" depart="258.93" from="218910324#3" to="-920025287#0" type="passenger"/>
    <trip id="134" depart="260.87" from="381746304#1" to="381452126#1" type="passenger"/>
    <trip id="135" depart="262.82" from="420187962#3" to="-218960891#5" type="passenger"/>
    <trip id="136" depart="264.77" from="117770556#0" to="-381452118#5" type="passenger"/>
    <trip id="137" depart="266.71" from="381741964" to="-381458586" type="passenger"/>
    <trip id="138" depart="268.66" from="-218681380#4" to="-381458603#0" type="passenger"/>
    <trip id="139" depart="270.61" from="-519097167#1" to="381458608#1" type="passenger"/>
    <trip id="140" depart="272.56" from="381452100#0" to="381458583#0" type="passenger"/>
    <trip id="141" depart="274.50" from="420187962#0" to="-420187962#0" type="passenger"/>
    <trip id="142" depart="276.45" from="-218960891#3" to="-381452165#0" type="passenger"/>
    <trip id="143" depart="278.40" from="381458600#0" to="-218960891#6" type="passenger"/>
    <trip id="144" depart="280.34" from="375125202" to="381746304#0" type="passenger"/>
    <trip id="145" depart="282.29" from="-381452100#0" to="-381458592#0" type="passenger"/>
    <trip id="146" depart="284.24" from="913718470" to="381458592#2" type="passenger"/>
    <trip id="147" depart="286.18" from="117770556#1" to="-218960891#0" type="passenger"/>
    <trip id="148" depart="288.13" from="381741927" to="218681380#1" type="passenger"/>
    <trip id="149" depart="290.08" from="519097168#0" to="218681380#4" type="passenger"/>
    <trip id="150" depart="292.02" from="-218960891#6" to="458731949" type="passenger"/>
    <trip id="151" depart="293.97" from="420187962#2" to="-519097166#0" type="passenger"/>
    <trip id="152" depart="295.92" from="381452118#1" to="913718470" type="passenger"/>
    <trip id="153" depart="297.86" from="-381452118#7" to="381458592#0" type="passenger"/>
    <trip id="154" depart="299.81" from="-381452123#1" to="381458600#1" type="passenger"/>
    <trip id="155" depart="301.76" from="913717725" to="-218681380#1" type="passenger"/>
    <trip id="156" depart="303.70" from="-920025287#1" to="381458592#1" type="passenger"/>
    <trip id="157" depart="305.65" from="381452126#1" to="920025286" type="passenger"/>
    <trip id="158" depart="307.60" from="920025287#4" to="-381452118#1" type="passenger"/>
    <trip id="159" depart="309.54" from="381452123#1" to="-920025287#0" type="passenger"/>
    <trip id="160" depart="311.49" from="-218960891#3" to="218960891#7" type="passenger"/>
    <trip id="161" depart="313.44" from="117770556#1" to="420187962#0" type="passenger"/>
    <trip id="162" depart="315.39" from="-381458592#0" to="-381458600#0" type="passenger"/>
    <trip id="163" depart="317.33" from="519097168#2" to="520307305#1" type="passenger"/>
    <trip id="164" depart="319.28" from="218910324#3" to="920025287#2" type="passenger"/>
    <trip id="165" depart="321.23" from="-381452118#3" to="-519097168#4" type="passenger"/>
    <trip id="166" depart="323.17" from="-218681380#4" to="420187962#0" type="passenger"/>
    <trip id="167" depart="325.12" from="-381452118#0" to="420187962#1" type="passenger"/>
    <trip id="168" depart="327.07" from="381746325#1" to="381458608#1" type="passenger"/>
    <trip id="169" depart="329.01" from="381452118#5" to="-520307305#0" type="passenger"/>
    <trip id="170" depart="330.96" from="218681380#7" to="-381458583#1" type="passenger"/>
    <trip id="171" depart="332.91" from="920025287#3" to="-381452126#0" type="passenger"/>
    <trip id="172" depart="334.85" from="519097167#0" to="381458583#2" type="passenger"/>
    <trip id="173" depart="336.80" from="920025287#2" to="519097168#1" type="passenger"/>
    <trip id="174" depart="338.75" from="-519097168#2" to="381746325#1" type="passenger"/>
    <trip id="175" depart="340.69" from="519097167#1" to="381458592#0" type="passenger"/>
    <trip id="176" depart="342.64" from="-218910324#2" to="218960891#3" type="passenger"/>
    <trip id="177" depart="344.59" from="420187962#3" to="381458583#5" type="passenger"/>
    <trip id="178" depart="346.53" from="-381458583#1" to="117770556#1" type="passenger"/>
    <trip id="179" depart="348.48" from="-381452185#1" to="-218681380#4" type="passenger"/>
    <trip id="180" depart="350.43" from="-519097168#1" to="-381452118#5" type="passenger"/>
    <trip id="181" depart="352.37" from="381741964" to="-519097168#4" type="passenger"/>
    <trip id="182" depart="354.32" from="381458600#0" to="-420103662#1" type="passenger"/>
    <trip id="183" depart="356.27" from="381458583#2" to="381458586" type="passenger"/>
    <trip id="184" depart="358.22" from="381452183#0" to="920025287#2" type="passenger"/>
    <trip id="185" depart="360.16" from="913718470" to="-420187962#2" type="passenger"/>
    <trip id="186" depart="362.11" from="381458583#2" to="381452118#0" type="passenger"/>
    <trip id="187" depart="364.06" from="218960891#2" to="519097167#1" type="passenger"/>
    <trip id="188" depart="366.00" from="-218960891#5" to="920025287#4" type="passenger"/>
    <trip id="189" depart="367.95" from="218960891#6" to="218960891#5" type="passenger"/>
    <trip id="190" depart="369.90" from="920025287#0" to="381452118#7" type="passenger"/>
    <trip id="191" depart="371.84" from="381452185#0" to="-381452118#3" type="passenger"/>
    <trip id="192" depart="373.79" from="-381741961" to="381452126#1" type="passenger"/>
    <trip id="193" depart="375.74" from="420187962#0" to="-381458592#4" type="passenger"/>
    <trip id="194" depart="377.68" from="-381741961" to="-381746325#0" type="passenger"/>
    <trip id="195" depart="379.63" from="218910324#2" to="381458583#5" type="passenger"/>
    <trip id="196" depart="381.58" from="420103662#0" to="218681380#5" type="passenger"/>
    <trip id="197" depart="383.52" from="-458731949" to="-420187962#2" type="passenger"/>
    <trip id="198" depart="385.47" from="381458590" to="381452165#2" type="passenger"/>
    <trip id="199" depart="387.42" from="920025286" to="-381458598" type="passenger"/>
    <trip id="200" depart="389.36" from="519097168#4" to="381746304#1" type="passenger"/>
    <trip id="201" depart="391.31" from="920025287#3" to="381458586" type="passenger"/>
    <trip id="202" depart="393.26" from="519097168#2" to="381452118#1" type="passenger"/>
    <trip id="203" depart="395.20" from="381458603#1" to="-420317539" type="passenger"/>
    <trip id="204" depart="397.15" from="381452165#0" to="-420187962#0" type="passenger"/>
    <trip id="205" depart="399.10" from="381746303#1" to="381452123#0" type="passenger"/>
    <trip id="206" depart="401.05" from="381458592#5" to="-920025287#0" type="passenger"/>
    <trip id="207" depart="402.99" from="117770556#0" to="-420187962#0" type="passenger"/>
    <trip id="208" depart="404.94" from="420103662#0" to="519097168#1" type="passenger"/>
    <trip id="209" depart="406.89" from="920025286" to="218910324#5" type="passenger"/>
    <trip id="210" depart="408.83" from="-381458586" to="-381746325#0" type="passenger"/>
    <trip id="211" depart="410.78" from="-381746304#1" to="218681380#5" type="passenger"/>
    <trip id="212" depart="412.73" from="-420314177" to="-381746325#0" type="passenger"/>
    <trip id="213" depart="414.67" from="381741961" to="381452126#1" type="passenger"/>
    <trip id="214" depart="416.62" from="381741964" to="-381746303#0" type="passenger"/>
    <trip id="215" depart="418.57" from="-381458587" to="381458603#1" type="passenger"/>
    <trip id="216" depart="420.51" from="-381458608#1" to="-381458590" type="passenger"/>
    <trip id="217" depart="422.46" from="420187962#1" to="-381452123#1" type="passenger"/>
    <trip id="218" depart="424.41" from="381741964" to="381458583#5" type="passenger"/>
    <trip id="219" depart="426.35" from="-218960891#3" to="-218910324#2" type="passenger"/>
    <trip id="220" depart="428.30" from="381452183#0" to="-381458592#4" type="passenger"/>
    <trip id="221" depart="430.25" from="-381452118#3" to="218960891#7" type="passenger"/>
    <trip id="222" depart="432.19" from="-920025287#3" to="-218960891#6" type="passenger"/>
    <trip id="223" depart="434.14" from="-381458608#1" to="920025286" type="passenger"/>
    <trip id="224" depart="436.09" from="-381458587" to="381458583#0" type="passenger"/>
    <trip id="225" depart="438.04" from="381452123#0" to="-519097168#2" type="passenger"/>
    <trip id="226" depart="439.98" from="381458600#1" to="218960891#3" type="passenger"/>
    <trip id="227" depart="441.93" from="-420314177" to="519097167#1" type="passenger"/>
    <trip id="228" depart="443.88" from="117770556#0" to="381746304#0" type="passenger"/>
    <trip id="229" depart="445.82" from="920025287#3" to="-381458592#2" type="passenger"/>
    <trip id="230" depart="447.77" from="920025287#3" to="381458600#1" type="passenger"/>
    <trip id="231" depart="449.72" from="381746313" to="381746308" type="passenger"/>
    <trip id="232" depart="451.66" from="218681380#5" to="381458608#0" type="passenger"/>
    <trip id="233" depart="453.61" from="920025287#4" to="-519097167#0" type="passenger"/>
    <trip id="234" depart="455.56" from="-920025287#1" to="-381458603#0" type="passenger"/>
    <trip id="235" depart="457.50" from="-218910324#2" to="-920025287#4" type="passenger"/>
    <trip id="236" depart="459.45" from="381458603#1" to="-519097166#0" type="passenger"/>
    <trip id="237" depart="461.40" from="218681380#1" to="117770556#1" type="passenger"/>
    <trip id="238" depart="463.34" from="-381452123#1" to="117770556#4" type="passenger"/>
    <trip id="239" depart="465.29" from="381452118#1" to="117770556#2" type="passenger"/>
    <trip id="240" depart="467.24" from="-381458583#5" to="381452185#2" type="passenger"/>
    <trip id="241" depart="469.18" from="-218960891#4" to="381458592#2" type="passenger"/>
    <trip id="242" depart="471.13" from="381741964" to="381746311" type="passenger"/>
    <trip id="243" depart="473.08" from="-381452165#1" to="-381458586" type="passenger"/>
    <trip id="244" depart="475.02" from="381458586" to="420187962#0" type="passenger"/>
    <trip id="245" depart="476.97" from="420314177" to="-381452118#5" type="passenger"/>
    <trip id="246" depart="478.92" from="-519097167#1" to="218910324#0" type="passenger"/>
    <trip id="247" depart="480.87" from="-381458608#1" to="-920025287#3" type="passenger"/>
    <trip id="248" depart="482.81" from="913722640" to="381452165#2" type="passenger"/>
    <trip id="249" depart="484.76" from="381458608#0" to="-381452165#1" type="passenger"/>
    <trip id="250" depart="486.71" from="-381746325#0" to="-381452118#6" type="passenger"/>
    <trip id="251" depart="488.65" from="381746315" to="-381452183#0" type="passenger"/>
    <trip id="252" depart="490.60" from="-381458587" to="218960891#2" type="passenger"/>
    <trip id="253" depart="492.55" from="381452126#1" to="381452165#1" type="passenger"/>
    <trip id="254" depart="494.49" from="117770556#4" to="-381452118#6" type="passenger"/>
    <trip id="255" depart="496.44" from="420314177" to="381746451#1" type="passenger"/>
    <trip id="256" depart="498.39" from="218960891#0" to="381746308" type="passenger"/>
    <trip id="257" depart="500.33" from="375125202" to="117770556#2" type="passenger"/>
    <trip id="258" depart="502.28" from="-381452123#0" to="117770556#2" type="passenger"/>
    <trip id="259" depart="504.23" from="-519097168#4" to="-381458600#0" type="passenger"/>
    <trip id="260" depart="506.17" from="218960891#5" to="-218910324#0" type="passenger"/>
    <trip id="261" depart="508.12" from="420103662#0" to="381458592#5" type="passenger"/>
    <trip id="262" depart="510.07" from="-920025287#2" to="-381458608#0" type="passenger"/>
    <trip id="263" depart="512.01" from="519097168#1" to="-519097168#0" type="passenger"/>
    <trip id="264" depart="513.96" from="420187962#0" to="-381452126#0" type="passenger"/>
    <trip id="265" depart="515.91" from="381746311" to="-381452185#0" type="passenger"/>
    <trip id="266" depart="517.85" from="218960891#4" to="-381458600#0" type="passenger"/>
    <trip id="267" depart="519.80" from="-381458592#1" to="-218960891#1" type="passenger"/>
    <trip id="268" depart="521.75" from="-218910324#4" to="381458603#1" type="passenger"/>
    <trip id="269" depart="523.70" from="-218910324#2" to="218960891#7" type="passenger"/>
    <trip id="270" depart="525.64" from="920025287#2" to="-381452185#1" type="passenger"/>
    <trip id="271" depart="527.59" from="-381746308" to="381452118#6" type="passenger"/>
    <trip id="272" depart="529.54" from="-381746451#0" to="381741961" type="passenger"/>
    <trip id="273" depart="531.48" from="381458608#0" to="519097167#1" type="passenger"/>
    <trip id="274" depart="533.43" from="420187962#3" to="-920025287#1" type="passenger"/>
    <trip id="275" depart="535.38" from="-420314177" to="519097168#0" type="passenger"/>
    <trip id="276" depart="537.32" from="-218960891#6" to="117770556#1" type="passenger"/>
    <trip id="277" depart="539.27" from="-381458608#0" to="-520307305#0" type="passenger"/>
    <trip id="278" depart="541.22" from="-381746304#0" to="218681380#3" type="passenger"/>
    <trip id="279" depart="543.16" from="381452185#1" to="381452126#0" type="passenger"/>
    <trip id="280" depart="545.11" from="218681380#4" to="-920025287#2" type="passenger"/>
    <trip id="281" depart="547.06" from="-381741961" to="381458603#1" type="passenger"/>
    <trip id="282" depart="549.00" from="-381746308" to="381741961" type="passenger"/>
    <trip id="283" depart="550.95" from="-218910324#1" to="117770556#4" type="passenger"/>
    <trip id="284" depart="552.90" from="381458600#1" to="420187962#3" type="passenger"/>
    <trip id="285" depart="554.84" from="218910324#2" to="117770556#4" type="passenger"/>
    <trip id="286" depart="556.79" from="-381741961" to="-519097168#0" type="passenger"/>
    <trip id="287" depart="558.74" from="-381452123#0" to="-381452118#0" type="passenger"/>
    <trip id="288" depart="560.68" from="-381458583#1" to="519097167#1" type="passenger"/>
    <trip id="289" depart="562.63" from="-381458583#0" to="218910324#5" type="passenger"/>
    <trip id="290" depart="564.58" from="381452100#0" to="381458603#1" type="passenger"/>
    <trip id="291" depart="566.53" from="381741964" to="-381458590" type="passenger"/>
    <trip id="292" depart="568.47" from="-381458586" to="218681380#4" type="passenger"/>
    <trip id="293" depart="570.42" from="-420187962#2" to="920025287#0" type="passenger"/>
    <trip id="294" depart="572.37" from="-381458583#0" to="381452123#1" type="passenger"/>
    <trip id="295" depart="574.31" from="-381458592#5" to="218960891#4" type="passenger"/>
    <trip id="296" depart="576.26" from="-381458583#2" to="117770556#3" type="passenger"/>
    <trip id="297" depart="578.21" from="519097168#0" to="381452118#5" type="passenger"/>
    <trip id="298" depart="580.15" from="-218910324#2" to="381452183#0" type="passenger"/>
    <trip id="299" depart="582.10" from="420187962#1" to="218681380#1" type="passenger"/>
    <trip id="300" depart="584.05" from="-381746304#1" to="920025287#2" type="passenger"/>
    <trip id="301" depart="585.99" from="-519097167#1" to="420187962#0" type="passenger"/>
    <trip id="302" depart="587.94" from="920025287#4" to="381458603#1" type="passenger"/>
    <trip id="303" depart="589.89" from="-381458583#5" to="381458608#1" type="passenger"/>
    <trip id="304" depart="591.83" from="-218910324#1" to="-920025287#3" type="passenger"/>
    <trip id="305" depart="593.78" from="-381458592#1" to="218910324#3" type="passenger"/>
    <trip id="306" depart="595.73" from="375125202" to="218960891#5" type="passenger"/>
    <trip id="307" depart="597.67" from="381452126#0" to="218910324#4" type="passenger"/>
    <trip id="308" depart="599.62" from="381746315" to="381458583#2" type="passenger"/>
    <trip id="309" depart="601.57" from="-218960891#2" to="-920025287#1" type="passenger"/>
    <trip id="310" depart="603.51" from="381458608#1" to="381746304#1" type="passenger"/>
    <trip id="311" depart="605.46" from="-218910324#2" to="-218960891#4" type="passenger"/>
    <trip id="312" depart="607.41" from="-381746303#1" to="-218960891#2" type="passenger"/>
    <trip id="313" depart="609.36" from="381746311" to="-381746311" type="passenger"/>
    <trip id="314" depart="611.30" from="117770556#1" to="-381452185#1" type="passenger"/>
    <trip id="315" depart="613.25" from="381452165#0" to="-218960891#0" type="passenger"/>
    <trip id="316" depart="615.20" from="117770556#0" to="519097168#4" type="passenger"/>
    <trip id="317" depart="617.14" from="-381458583#2" to="381458583#0" type="passenger"/>
    <trip id="318" depart="619.09" from="-420187962#2" to="-381452165#1" type="passenger"/>
    <trip id="319" depart="621.04" from="-218960891#6" to="-381452118#1" type="passenger"/>
    <trip id="320" depart="622.98" from="-218960891#6" to="-519097168#4" type="passenger"/>
    <trip id="321" depart="624.93" from="-381452118#3" to="-420317539" type="passenger"/>
    <trip id="322" depart="626.88" from="381458608#0" to="-920025287#3" type="passenger"/>
    <trip id="323" depart="628.82" from="381746325#0" to="381452118#3" type="passenger"/>