<?xml version="1.0" encoding="UTF-8"?>

<!-- generated on 2026-04-17 02:58:28.579245 by Eclipse SUMO randomTrips.py v1.26.0
<configuration>
    <net-file value="/Users/junlee/Desktop/2026-1/js/result/tradeoff_pet_top12_seed12_60min_20260417_025716/sumo_nets/cw_8430/network.net.xml"/>
    <output-trip-file value="/Users/junlee/Desktop/2026-1/js/result/tradeoff_pet_top12_seed12_60min_20260417_025716/sumo_nets/cw_8430/routes_seed47.trips.xml"/>
    <route-file value="/Users/junlee/Desktop/2026-1/js/result/tradeoff_pet_top12_seed12_60min_20260417_025716/sumo_nets/cw_8430/routes_seed47.rou.xml"/>
    <vehicle-class value="passenger"/>
    <seed value="47"/>
    <period value="1.9624228898194762"/>
</configuration>
-->

<!-- generated on 2026-04-17T02:58:28.527486+09:00 by Eclipse SUMO duarouter 1.26.0
<duarouterConfiguration xmlns:xsi="http://www.w3.org/2001/XMLSchema-instance" xsi:noNamespaceSchemaLocation="http://sumo.dlr.de/xsd/duarouterConfiguration.xsd">

    <input>
        <net-file value="/Users/junlee/Desktop/2026-1/js/result/tradeoff_pet_top12_seed12_60min_20260417_025716/sumo_nets/cw_8430/network.net.xml"/>
        <route-files value="/Users/junlee/Desktop/2026-1/js/result/tradeoff_pet_top12_seed12_60min_20260417_025716/sumo_nets/cw_8430/routes_seed47.trips.xml"/>
    </input>

    <output>
        <output-file value="/Users/junlee/Desktop/2026-1/js/result/tradeoff_pet_top12_seed12_60min_20260417_025716/sumo_nets/cw_8430/routes_seed47.rou.xml"/>
        <alternatives-output value="NUL"/>
    </output>

    <time>
        <begin value="0.0"/>
        <end value="3600.0"/>
    </time>

    <report>
        <no-warnings value="true"/>
        <ignore-errors value="true"/>
        <no-step-log value="true"/>
    </report>

</duarouterConfiguration>
-->

<routes xmlns:xsi="http://www.w3.org/2001/XMLSchema-instance" xsi:noNamespaceSchemaLocation="http://sumo.dlr.de/xsd/routes_file.xsd">
    <vType id="passenger" vClass="passenger"/>
    <vehicle id="0" type="passenger" depart="0.00">
        <route edges="-381746451#1 -381746451#0 218960891#1 218960891#2 218960891#3 218960891#4 218960891#5 218960891#6 218960891#7 -519097168#4 -519097168#2 -519097168#1"/>
    </vehicle>
    <vehicle id="1" type="passenger" depart="1.96">
        <route edges="-920025287#3 -381746313"/>
    </vehicle>
    <vehicle id="2" type="passenger" depart="3.92">
        <route edges="218681380#5 218681380#7 -218960891#7 913717725 -218681380#5 -218681380#4 -218681380#3 -218681380#2 -381458600#1 -420314177"/>
    </vehicle>
    <vehicle id="3" type="passenger" depart="5.89">
        <route edges="-218910324#0 -218960891#7 913717725 218681380#7 218910324#0 218910324#1 218910324#2 -519097167#1"/>
    </vehicle>
    <vehicle id="4" type="passenger" depart="7.85">
        <route edges="-218681380#4 381458603#0 381458603#1 420187962#1 420187962#2 420187962#3 -218910324#0 -218960891#7"/>
    </vehicle>
    <vehicle id="5" type="passenger" depart="9.81">
        <route edges="-381458592#5 -381458592#4 381458600#0 381458600#1 218681380#2 218681380#3 218681380#4 218681380#5 218681380#7 218910324#0 913718470"/>
    </vehicle>
    <vehicle id="6" type="passenger" depart="11.77">
        <route edges="117770556#3 -381746325#0 218960891#4 218960891#5 218960891#6 218960891#7 218910324#0 218910324#1 218910324#2"/>
    </vehicle>
    <vehicle id="7" type="passenger" depart="13.74">
        <route edges="519097167#1 218910324#3 -381458593 381458586 420187963"/>
    </vehicle>
    <vehicle id="8" type="passenger" depart="15.70">
        <route edges="218960891#3 218960891#4 218960891#5 218960891#6 218960891#7 218910324#0 -420187962#3 -420187962#2 -420187962#1 -420187962#0 -381458592#0"/>
    </vehicle>
    <vehicle id="9" type="passenger" depart="17.66">
        <route edges="218910324#0 913718470 519097168#4 -218960891#7 -218960891#6 -218960891#5 -218960891#4 -218960891#3 -218960891#2 -420103662#1 -420103662#0"/>
    </vehicle>
    <vehicle id="10" type="passenger" depart="19.62">
        <route edges="913718470 519097168#4 -218681380#7"/>
    </vehicle>
    <vehicle id="11" type="passenger" depart="21.59">
        <route edges="-420187962#2 -381458608#0 -218681380#4 -218681380#3 -218681380#2 381452165#0 381452165#1 381452165#2"/>
    </vehicle>
    <vehicle id="12" type="passenger" depart="23.55">
        <route edges="381452100#0 381452185#2 218960891#3 218960891#4 218960891#5 218960891#6 218960891#7 218910324#0 218910324#1 218910324#2 218910324#3 218910324#4"/>
    </vehicle>
    <vehicle id="13" type="passenger" depart="25.51">
        <route edges="381458600#1 -218681380#1 -381458592#5 -381458592#4 -381458592#2 -381458592#1"/>
    </vehicle>
    <vehicle id="14" type="passenger" depart="27.47">
        <route edges="381746325#0 117770556#4 920025287#0 920025287#1 920025287#2 920025287#3 920025287#4 -519097168#1 -519097168#0 381741961 519097166#0"/>
    </vehicle>
    <vehicle id="15" type="passenger" depart="29.44">
        <route edges="-218681380#7 381458583#0 420187962#3 913718470 -519097168#2 -920025287#4 381746304#0 -381746303#1 -381746304#1"/>
    </vehicle>
    <vehicle id="16" type="passenger" depart="31.40">
        <route edges="-420187962#0 -381458592#0 -381458586 -381458583#2 -381458583#1 -420187962#2"/>
    </vehicle>
    <vehicle id="17" type="passenger" depart="33.36">
        <route edges="218910324#3 -381458593 -381458583#2 -381458583#1 -381458583#0 -218681380#5 -218681380#4 -218681380#3 -218681380#2 -218681380#1 -381458592#5"/>
    </vehicle>
    <vehicle id="18" type="passenger" depart="35.32">
        <route edges="381452126#0 -381452165#0 -381458600#1 -381458600#0 -381458592#2 -381458592#1 420187962#0"/>
    </vehicle>
    <vehicle id="19" type="passenger" depart="37.29">
        <route edges="519097168#1 519097168#2 519097168#4 -218960891#7 381746315"/>
    </vehicle>
    <vehicle id="20" type="passenger" depart="39.25">
        <route edges="-381458583#2 -381458608#1 420187962#2 381458583#1 381458583#2 381458586 381458592#0"/>
    </vehicle>
    <vehicle id="21" type="passenger" depart="41.21">
        <route edges="381458603#1 420187962#1 420187962#2 420187962#3 -218910324#0 -218960891#7 -218960891#6 -218960891#5 375125202"/>
    </vehicle>
    <vehicle id="22" type="passenger" depart="43.17">
        <route edges="381452183#0 381452185#1 381452185#2 218960891#3 218960891#4 218960891#5 218960891#6 218960891#7 218910324#0 -420187962#3 -420187962#2 -420187962#1 -381458603#1"/>
    </vehicle>
    <vehicle id="23" type="passenger" depart="45.14">
        <route edges="381458603#1 420187962#1 -381458608#0 -218681380#4 -218681380#3 -218681380#2 -381458600#1 -381458600#0 -381458592#2 -381458592#1"/>
    </vehicle>
    <vehicle id="24" type="passenger" depart="47.10">
        <route edges="218960891#1 218960891#2 218960891#3 218960891#4 218960891#5 218960891#6 218960891#7 218910324#0 218910324#1 218910324#2 218910324#3 -381458593"/>
    </vehicle>
    <vehicle id="25" type="passenger" depart="49.06">
        <route edges="218910324#2 218910324#3 -381458593 -381458583#2 -381458583#1 420187962#3 -218910324#0"/>
    </vehicle>
    <vehicle id="26" type="passenger" depart="51.02">
        <route edges="-381746303#1 -381746304#1 -381746304#0 920025287#4 519097168#2 519097168#4 -218681380#7 -218681380#5 -218681380#4 -218681380#3 -218681380#2 -218681380#1 -381458592#5 -381458592#4 381458600#0"/>
    </vehicle>
    <vehicle id="27" type="passenger" depart="52.99">
        <route edges="-381458592#4 381458600#0 381458600#1 218681380#2 218681380#3 218681380#4 218681380#5 218681380#7 218910324#0 218910324#1 218910324#2 218910324#3 -381458593 381458583#5"/>
    </vehicle>
    <vehicle id="28" type="passenger" depart="54.95">
        <route edges="381741964 519097166#0 519097168#1 519097168#2 519097168#4 -218960891#7 -218960891#6 -218960891#5 375125202"/>
    </vehicle>
    <vehicle id="29" type="passenger" depart="56.91">
        <route edges="381452118#6 381452118#7 218681380#3 218681380#4 218681380#5 218681380#7 218910324#0 -420187962#3 -381458583#0"/>
    </vehicle>
    <vehicle id="30" type="passenger" depart="58.87">
        <route edges="117770556#4 920025287#0 920025287#1 920025287#2 -381746313 519097168#4 -218960891#7 913717725"/>
    </vehicle>
    <vehicle id="31" type="passenger" depart="60.84">
        <route edges="920025287#2 -381746313 519097168#4 218910324#0 218910324#1 218910324#2 218910324#3 218910324#4"/>
    </vehicle>
    <vehicle id="32" type="passenger" depart="62.80">
        <route edges="-920025287#1 -920025287#0 920025286 117770556#4 920025287#0 920025287#1"/>
    </vehicle>
    <vehicle id="33" type="passenger" depart="64.76">
        <route edges="-218960891#3 -381452185#2 -381452100#0 218681380#5 218681380#7 218910324#0 218910324#1 218910324#2 218910324#3 -381458593 -381458598"/>
    </vehicle>
    <vehicle id="34" type="passenger" depart="66.72">
        <route edges="381746303#1 -381746304#0 920025287#4 519097168#2 519097168#4 218910324#0 218910324#1 218910324#2"/>
    </vehicle>
    <vehicle id="35" type="passenger" depart="68.68">
        <route edges="381458608#1 -381458583#1 -381458583#0 218681380#7 -519097168#4 -519097168#2"/>
    </vehicle>
    <vehicle id="36" type="passenger" depart="70.65">
        <route edges="519097167#1 -218910324#2 -218910324#1 -218910324#0 -218681380#7"/>
    </vehicle>
    <vehicle id="37" type="passenger" depart="72.61">
        <route edges="-381458592#5 -381458592#4 381458600#0 381458600#1 381452165#0 381452165#1 381452123#1 381452118#6"/>
    </vehicle>
    <vehicle id="38" type="passenger" depart="74.57">
        <route edges="218681380#7 -218960891#7 913717725 -218681380#5 -218681380#4 -218681380#3 -218681380#2 381452165#0"/>
    </vehicle>
    <vehicle id="39" type="passenger" depart="76.53">
        <route edges="117770556#1 420103662#1 218960891#2 218960891#3 218960891#4 218960891#5 218960891#6 913717725 -218681380#5 381452100#0 381452185#2"/>
    </vehicle>
    <vehicle id="40" type="passenger" depart="78.50">
        <route edges="381741964 519097166#0 -519097168#0 381741961 -381741964"/>
    </vehicle>
    <vehicle id="41" type="passenger" depart="80.46">
        <route edges="-218681380#4 -218681380#3 -218681380#2 -381458600#1 -381458600#0 -381458592#2"/>
    </vehicle>
    <vehicle id="42" type="passenger" depart="82.42">
        <route edges="-381746451#0 218960891#1 218960891#2 218960891#3 218960891#4 218960891#5 218960891#6 381746315 920025287#2 920025287#3"/>
    </vehicle>
    <vehicle id="43" type="passenger" depart="84.38">
        <route edges="913718470 519097168#4 -218681380#7 -218681380#5 -218681380#4 -218681380#3 -381452118#7 -381452118#6 -381452118#5 381452183#0"/>
    </vehicle>
    <vehicle id="44" type="passenger" depart="86.35">
        <route edges="-381452165#1 -381452165#0 218681380#2 218681380#3 218681380#4 218681380#5 218681380#7 -519097168#4 -519097168#2 -519097168#1 -519097166#0 519097167#0"/>
    </vehicle>
    <vehicle id="45" type="passenger" depart="88.31">
        <route edges="-381452118#3 381452123#0 -381452165#1 -381452126#0 -381452118#6"/>
    </vehicle>
    <vehicle id="46" type="passenger" depart="90.27">
        <route edges="381458608#1 -381458583#1 -381458583#0 218681380#7 -519097168#4 -519097168#2 -920025287#4 -920025287#3 -381746313"/>
    </vehicle>
    <vehicle id="47" type="passenger" depart="92.23">
        <route edges="-420314177 381458603#1 420187962#1 420187962#2 381458583#1 381458583#2 -381458598"/>
    </vehicle>
    <vehicle id="48" type="passenger" depart="94.20">
        <route edges="-218681380#0 381452118#0 381452118#1 381452123#0 381452165#2 -381452118#3 -381452118#1"/>
    </vehicle>
    <vehicle id="49" type="passenger" depart="96.16">
        <route edges="-218910324#5 -218910324#4 -218910324#3 -218910324#2 -218910324#1 -218910324#0 -218681380#7 -218681380#5 -218681380#4 -218681380#3"/>
    </vehicle>
    <vehicle id="50" type="passenger" depart="98.12">
        <route edges="-218910324#0 -218960891#7 -218960891#6 -218960891#5 -218960891#4 -218960891#3 -381452185#2 -381452185#1 -381452183#0 -381452165#2"/>
    </vehicle>
    <vehicle id="51" type="passenger" depart="100.08">
        <route edges="218681380#5 218681380#7 -218960891#7 -218960891#6 -218960891#5 -218960891#4 -218960891#3 -218960891#2 -420103662#1 117770556#2"/>
    </vehicle>
    <vehicle id="52" type="passenger" depart="102.05">
        <route edges="381458608#1 -381458583#1 -381458583#0 218681380#7 -519097168#4 -519097168#2 -519097168#1 -519097168#0 381741961"/>
    </vehicle>
    <vehicle id="53" type="passenger" depart="104.01">
        <route edges="218910324#1 218910324#2 218910324#3 218910324#4 218910324#5"/>
    </vehicle>
    <vehicle id="54" type="passenger" depart="105.97">
        <route edges="-218681380#1 -218681380#0 381452118#0 381452118#1 381452118#3 381452183#0 381452185#1 381452185#2 -218960891#2 -218960891#1"/>
    </vehicle>
    <vehicle id="55" type="passenger" depart="107.93">
        <route edges="381746315 920025287#2 920025287#3 920025287#4 -519097168#1 -519097166#0 519097167#0"/>
    </vehicle>
    <vehicle id="56" type="passenger" depart="109.90">
        <route edges="-381746313 519097168#4 -218960891#7 -218960891#6 -218960891#5 -218960891#4 -218960891#3 -218960891#2 -218960891#1 381746451#0 381746451#1"/>
    </vehicle>
    <vehicle id="57" type="passenger" depart="111.86">
        <route edges="420187962#1 420187962#2 381458583#1 -381458608#1 -420187962#1 -420187962#0 -381458592#0"/>
    </vehicle>
    <vehicle id="58" type="passenger" depart="113.82">
        <route edges="-218910324#4 -218910324#3 -218910324#2 -218910324#1 -218910324#0 -218681380#7 -218681380#5 -218681380#4 -218681380#3 -381452118#7 -381452118#6 -381452118#5 -381452118#3"/>
    </vehicle>
    <vehicle id="59" type="passenger" depart="115.78">
        <route edges="-218960891#4 -218960891#3 -381452185#2 -381452100#0 218681380#5 381458583#0 381458583#1 381458583#2 381458593 -218910324#3"/>
    </vehicle>
    <vehicle id="60" type="passenger" depart="117.75">
        <route edges="420317539 381452118#3 381452118#5 381452118#6 381452118#7 218681380#3 218681380#4 218681380#5 218681380#7 218910324#0"/>
    </vehicle>
    <vehicle id="61" type="passenger" depart="119.71">
        <route edges="218960891#0 218960891#1 218960891#2 218960891#3 218960891#4 218960891#5 218960891#6 913717725 -218681380#5 -218681380#4 -218681380#3 -218681380#2 -381458600#1 -381458600#0 381458592#4"/>
    </vehicle>
    <vehicle id="62" type="passenger" depart="121.67">
        <route edges="381452118#5 381452118#6 381452118#7 218681380#3 218681380#4 218681380#5 218681380#7 -519097168#4 381746313 920025287#3"/>
    </vehicle>
    <vehicle id="63" type="passenger" depart="123.63">
        <route edges="-218960891#3 -218960891#2 -420103662#1 117770556#2"/>
    </vehicle>
    <vehicle id="64" type="passenger" depart="125.60">
        <route edges="218960891#1 218960891#2 -381452185#2 -381452185#1 -381452183#0 -381452118#3 -381452118#1 -381452118#0 520307305#1"/>
    </vehicle>
    <vehicle id="65" type="passenger" depart="127.56">
        <route edges="-381458608#1 420187962#2 420187962#3 913718470 381746313"/>
    </vehicle>
    <vehicle id="66" type="passenger" depart="129.52">
        <route edges="117770556#4 920025287#0 920025287#1 920025287#2 -381746313 519097168#4 -218681380#7 -218681380#5 -218681380#4 -218681380#3 -381452118#7"/>
    </vehicle>
    <vehicle id="67" type="passenger" depart="131.48">
        <route edges="920025286 -381746325#0 -218960891#3 -381452185#2 -381452185#1 -381452183#0 -381452118#3 -381452118#1 -381452118#0"/>
    </vehicle>
    <vehicle id="68" type="passenger" depart="133.44">
        <route edges="-920025287#4 -920025287#3 -381746313 519097168#4 -218681380#7 -218681380#5 -218681380#4 381458603#0"/>
    </vehicle>
    <vehicle id="69" type="passenger" depart="135.41">
        <route edges="381746304#1 381746303#1 -381746304#0 -920025287#3 -381746313 -519097168#2"/>
    </vehicle>
    <vehicle id="70" type="passenger" depart="137.37">
        <route edges="218960891#3 218960891#4 218960891#5 218960891#6 913717725 -218681380#5 -218681380#4 -218681380#3 -218681380#2 -381458600#1 -381458600#0 381458592#4"/>
    </vehicle>
    <vehicle id="71" type="passenger" depart="139.33">
        <route edges="-218910324#5 -218910324#4 -218910324#3 -218910324#2 -218910324#1 -218910324#0 -218681380#7 -218681380#5 -218681380#4 381458603#0"/>
    </vehicle>
    <vehicle id="72" type="passenger" depart="141.29">
        <route edges="381458608#1 -381458583#1 -381458583#0 218681380#7 -218960891#7 -218960891#6 -218960891#5 -218960891#4 -218960891#3 -218960891#2 -420103662#1 117770556#2"/>
    </vehicle>
    <vehicle id="73" type="passenger" depart="143.26">
        <route edges="-381452100#1 -381452185#1 -381452183#0 -381452165#2 -381452165#1 -381452165#0 -381458600#1 -381458600#0 -381458592#2"/>
    </vehicle>
    <vehicle id="74" type="passenger" depart="145.22">
        <route edges="381741961 519097166#0 519097168#1 519097168#2 519097168#4 -218681380#7 -218681380#5 -218681380#4 -218681380#3 -381452118#7 381452126#0 -381452165#0"/>
    </vehicle>
    <vehicle id="75" type="passenger" depart="147.18">
        <route edges="-218681380#4 381458603#0 381458603#1 420187962#1 420187962#2 420187962#3 -218910324#0 -218960891#7 -218960891#6"/>
    </vehicle>
    <vehicle id="76" type="passenger" depart="149.14">
        <route edges="-920025287#4 -920025287#3 -920025287#2 -920025287#1"/>
    </vehicle>
    <vehicle id="77" type="passenger" depart="151.11">
        <route edges="-381458600#1 -420314177 -381458603#0 218681380#4 218681380#5 218681380#7 218910324#0 218910324#1"/>
    </vehicle>
    <vehicle id="78" type="passenger" depart="153.07">
        <route edges="381458583#0 420187962#3 218910324#1 218910324#2 -519097167#1 -519097167#0 519097166#0"/>
    </vehicle>
    <vehicle id="79" type="passenger" depart="155.03">
        <route edges="913722640 -381746313 519097168#4 -218960891#7 -218960891#6 -218960891#5 -218960891#4 -218960891#3 -381452185#2 -381452185#1 -381452185#0"/>
    </vehicle>
    <vehicle id="80" type="passenger" depart="156.99">
        <route edges="381452185#0 381452185#1 381452185#2 218960891#3 218960891#4 218960891#5 218960891#6 913717725 381458583#0 420187962#3 -218910324#0"/>
    </vehicle>
    <vehicle id="81" type="passenger" depart="158.96">
        <route edges="-381458592#5 -381458592#4 381458600#0 381458600#1 218681380#2 218681380#3 218681380#4 218681380#5 218681380#7 -218960891#7 -218960891#6 -218960891#5 -218960891#4 -218960891#3 -218960891#2 -218960891#1 381746451#0 117770556#1"/>
    </vehicle>
    <vehicle id="82" type="passenger" depart="160.92">
        <route edges="-218910324#5 -218910324#4 -218910324#3 -218910324#2 -218910324#1 -218910324#0 -218681380#7 -218681380#5 -218681380#4 381458603#0 420314177 381458600#1"/>
    </vehicle>
    <vehicle id="83" type="passenger" depart="162.88">
        <route edges="420187962#2 -381458583#0 -218681380#5 381452100#0 381452185#2"/>
    </vehicle>
    <vehicle id="84" type="passenger" depart="164.84">
        <route edges="381452100#0 381452185#2 218960891#3 218960891#4 218960891#5 218960891#6 218960891#7 218910324#0"/>
    </vehicle>
    <vehicle id="85" type="passenger" depart="166.81">
        <route edges="381741927 519097167#1 -218910324#2 -218910324#1 -218910324#0 -218681380#7 -218681380#5 381452100#0 381452185#2 218960891#3"/>
    </vehicle>
    <vehicle id="86" type="passenger" depart="168.77">
        <route edges="-519097167#1 -519097167#0 519097166#0 519097168#1 519097168#2 519097168#4 -218681380#7 -218681380#5 -218681380#4 -218681380#3 -218681380#2 381452165#0 381452165#1"/>
    </vehicle>
    <vehicle id="87" type="passenger" depart="170.73">
        <route edges="420317539 381452118#3 381452118#5 381452118#6 381452118#7 218681380#3 218681380#4 218681380#5 218681380#7 218910324#0 218910324#1 218910324#2 218910324#3 -381458593 381458583#5"/>
    </vehicle>
    <vehicle id="88" type="passenger" depart="172.69">
        <route edges="-218960891#5 -218960891#4 -218960891#3 -381452185#2 -381452100#0 218681380#5 218681380#7 218910324#0 218910324#1 458731949 519097168#1"/>
    </vehicle>
    <vehicle id="89" type="passenger" depart="174.66">
        <route edges="218681380#5 218681380#7 -519097168#4 -519097168#2 -519097168#1 -519097166#0 -381741961"/>
    </vehicle>
    <vehicle id="90" type="passenger" depart="176.62">
        <route edges="913717725 218681380#7 218910324#0"/>
    </vehicle>
    <vehicle id="91" type="passenger" depart="178.58">
        <route edges="-420103662#1 117770556#2 381746311 -381452185#2 -381452100#0"/>
    </vehicle>
    <vehicle id="92" type="passenger" depart="180.54">
        <route edges="519097168#2 519097168#4 -218960891#7 -218960891#6 -218960891#5 -218960891#4 381746325#0"/>
    </vehicle>
    <vehicle id="93" type="passenger" depart="182.51">
        <route edges="381458592#5 218681380#1 218681380#2 218681380#3 218681380#4 218681380#5 218681380#7 -218960891#7 -218960891#6 -218960891#5 -218960891#4 -218960891#3 -218960891#2 -420103662#1 -420103662#0"/>
    </vehicle>
    <vehicle id="94" type="passenger" depart="184.47">
        <route edges="-381746451#0 218960891#1 218960891#2 218960891#3 218960891#4 218960891#5 218960891#6 913717725 218681380#7 -218960891#7 -218960891#6 -218960891#5 -218960891#4 -218960891#3 -218960891#2 -218960891#1 381746451#0"/>
    </vehicle>
    <vehicle id="95" type="passenger" depart="186.43">
        <route edges="519097168#1 519097168#2 519097168#4 -218681380#7 -218681380#5 -218681380#4 -218681380#3 -218681380#2 -218681380#1 -218681380#0 381452118#0 381452118#1 381452118#3"/>
    </vehicle>
    <vehicle id="96" type="passenger" depart="188.39">
        <route edges="-381458593 -381458583#2 -381458583#1"/>
    </vehicle>
    <vehicle id="97" type="passenger" depart="190.36">
        <route edges="-381458583#0 218681380#7 -218960891#7 -218960891#6 -218960891#5 -218960891#4 381746325#0"/>
    </vehicle>
    <vehicle id="98" type="passenger" depart="192.32">
        <route edges="381746304#1 381746303#1 -381746304#0 920025287#4 519097168#2 519097168#4 -218681380#7 -218681380#5 -218681380#4 -218681380#3 -218681380#2 381452165#0 381452126#1 -381452118#0 520307305#1"/>
    </vehicle>
    <vehicle id="99" type="passenger" depart="194.28">
        <route edges="-920025287#1 -920025287#0 920025286 -381746325#0 218960891#4 218960891#5 218960891#6 913717725 -218681380#5 -218681380#4 -218681380#3 -218681380#2 -218681380#1 -381458592#5 -381458592#4 381458600#0"/>
    </vehicle>
    <vehicle id="100" type="passenger" depart="196.24">
        <route edges="-381746304#0 920025287#4 519097168#2 519097168#4 -218681380#7 -218681380#5 -218681380#4 -218681380#3 -218681380#2 381452165#0"/>
    </vehicle>
    <vehicle id="101" type="passenger" depart="198.20">
        <route edges="-381452123#1 -381452165#1 -381452165#0 218681380#2 218681380#3 218681380#4 218681380#5 218681380#7 -519097168#4 -519097168#2 -920025287#4"/>
    </vehicle>
    <vehicle id="102" type="passenger" depart="200.17">
        <route edges="-218681380#5 381452100#0 381452185#2 -218960891#2 -218960891#1 381746451#0"/>
    </vehicle>
    <vehicle id="103" type="passenger" depart="202.13">
        <route edges="218681380#7 -218960891#7 913717725 -218681380#5 381452100#0"/>
    </vehicle>
    <vehicle id="104" type="passenger" depart="204.09">
        <route edges="420103662#0 420103662#1 218960891#2 218960891#3 218960891#4 218960891#5 218960891#6 218960891#7 218910324#0 -420187962#3 -420187962#2 -381458608#0"/>
    </vehicle>
    <vehicle id="105" type="passenger" depart="206.05">
        <route edges="-381458608#1 -381458608#0 218681380#5 218681380#7 -519097168#4 -519097168#2 -519097168#1 -519097166#0 -381741961 519097168#0"/>
    </vehicle>
    <vehicle id="106" type="passenger" depart="208.02">
        <route edges="-519097168#1 -458731949 -218910324#1 -218910324#0 -218960891#7 -218960891#6 -218960891#5 -218960891#4 381746325#0 117770556#4"/>
    </vehicle>
    <vehicle id="107" type="passenger" depart="209.98">
        <route edges="913717725 -218681380#5 -218681380#4 -218681380#3 -218681380#2 381452165#0 381452126#1 -381452118#0 520307305#1 218681380#1"/>
    </vehicle>
    <vehicle id="108" type="passenger" depart="211.94">
        <route edges="218681380#5 218681380#7 -519097168#4 -519097168#2 -519097168#1 -519097166#0 -381741964"/>
    </vehicle>
    <vehicle id="109" type="passenger" depart="213.90">
        <route edges="-218681380#4 -218681380#3 -381452118#7 -381452118#6 -381452118#5 381452183#0 381452185#1 381452185#2 218960891#3 218960891#4 375125202"/>
    </vehicle>
    <vehicle id="110" type="passenger" depart="215.87">
        <route edges="420187962#1 420187962#2 420187962#3 -218910324#0 -218960891#7 -218960891#6 -218960891#5 -218960891#4 381746325#0 381746325#1"/>
    </vehicle>
    <vehicle id="111" type="passenger" depart="217.83">
        <route edges="519097167#0 519097167#1 -218910324#2 -218910324#1 -218910324#0 -218681380#7 -218681380#5 381452100#0 381452185#2 218960891#3 218960891#4 218960891#5"/>
    </vehicle>
    <vehicle id="112" type="passenger" depart="219.79">
        <route edges="375125202 920025287#0 920025287#1 920025287#2 -381746313 519097168#4 -218681380#7 -218681380#5 -218681380#4 -218681380#3 -218681380#2 -218681380#1 -218681380#0 381452118#0"/>
    </vehicle>
    <vehicle id="113" type="passenger" depart="221.75">
        <route edges="-920025287#4 -920025287#3 -381746313 519097168#4 218910324#0 218910324#1 218910324#2 218910324#3 218910324#4"/>
    </vehicle>
    <vehicle id="114" type="passenger" depart="223.72">
        <route edges="381452185#1 381452185#2 218960891#3 218960891#4 218960891#5 218960891#6 218960891#7 218910324#0 -420187962#3 -420187962#2 -420187962#1"/>
    </vehicle>
    <vehicle id="115" type="passenger" depart="225.68">
        <route edges="-218910324#1 -218910324#0 -218681380#7 -218681380#5 381452100#0"/>
    </vehicle>
    <vehicle id="116" type="passenger" depart="227.64">
        <route edges="-381452165#2 381452123#1 -381452118#5 381452183#0 381452185#1 381452185#2 -218960891#2"/>
    </vehicle>
    <vehicle id="117" type="passenger" depart="229.60">
        <route edges="-519097167#1 -519097167#0 519097166#0 519097168#1 519097168#2 519097168#4 218910324#0 -420187962#3 -420187962#2 -420187962#1 -420187962#0 -381458592#0 -381458586"/>
    </vehicle>
    <vehicle id="118" type="passenger" depart="231.57">
        <route edges="-381452165#1 -381452126#0 -381452118#6 -381452118#5 381452183#0 381452185#1 381452185#2 218960891#3 218960891#4 218960891#5 218960891#6"/>
    </vehicle>
    <vehicle id="119" type="passenger" depart="233.53">
        <route edges="-218681380#0 381452118#0 -381452126#1 -381452165#0 218681380#2 -381452118#7"/>
    </vehicle>
    <vehicle id="120" type="passenger" depart="235.49">
        <route edges="-218960891#1 381746451#0 117770556#1 420103662#1 218960891#2 218960891#3 218960891#4 218960891#5 218960891#6 218960891#7 218910324#0 -420187962#3"/>
    </vehicle>
    <vehicle id="121" type="passenger" depart="237.45">
        <route edges="-420187963 381458592#0 381458592#1 381458587"/>
    </vehicle>
    <vehicle id="122" type="passenger" depart="239.42">
        <route edges="381452118#7 218681380#3 218681380#4 218681380#5 218681380#7 218910324#0 218910324#1 218910324#2 218910324#3 -381458593 381458583#5"/>
    </vehicle>
    <vehicle id="123" type="passenger" depart="241.38">
        <route edges="218681380#5 218681380#7 -218960891#7"/>
    </vehicle>
    <vehicle id="124" type="passenger" depart="243.34">
        <route edges="381741927 -519097167#0"/>
    </vehicle>
    <vehicle id="125" type="passenger" depart="245.30">
        <route edges="420314177 381458600#1 218681380#2 218681380#3 218681380#4 218681380#5 218681380#7 -218960891#7"/>
    </vehicle>
    <vehicle id="126" type="passenger" depart="247.27">
        <route edges="381452118#5 381452118#6 381452118#7 218681380#3 218681380#4 218681380#5 381458583#0 381458583#1 381458583#2 381458586 420187963"/>
    </vehicle>
    <vehicle id="127" type="passenger" depart="249.23">
        <route edges="218681380#2 218681380#3 218681380#4 218681380#5 218681380#7 -519097168#4"/>
    </vehicle>
    <vehicle id="128" type="passenger" depart="251.19">
        <route edges="381746311 218960891#3 218960891#4 218960891#5 218960891#6 913717725 -218681380#5 -218681380#4 -218681380#3 -218681380#2 -381458600#1 -420314177"/>
    </vehicle>
    <vehicle id="129" type="passenger" depart="253.15">
        <route edges="218681380#4 218681380#5 218681380#7 -519097168#4 -519097168#2 -519097168#1"/>
    </vehicle>
    <vehicle id="130" type="passenger" depart="255.11">
        <route edges="519097167#0 519097167#1 -218910324#2 -218910324#1 913718470 -519097168#2 -920025287#4 381746304#0 -381746303#1 -381746303#0"/>
    </vehicle>
    <vehicle id="131" type="passenger" depart="257.08">
        <route edges="381746325#1 920025287#0 920025287#1 920025287#2 -381746313 519097168#4 -218681380#7 -218681380#5 -218681380#4 -218681380#3 -381452118#7 -381452118#6 -381452118#5"/>
    </vehicle>
    <vehicle id="132" type="passenger" depart="259.04">
        <route edges="381458586 381458592#0 420187962#0 420187962#1 420187962#2 420187962#3 -218910324#0 -218960891#7 -218960891#6 -218960891#5 -218960891#4 -218960891#3 -218960891#2 -420103662#1 117770556#2"/>
    </vehicle>
    <vehicle id="133" type="passenger" depart="261.00">
        <route edges="381452126#1 -381452118#0 520307305#1 218681380#1 218681380#2 218681380#3 218681380#4 218681380#5 218681380#7 -218960891#7"/>
    </vehicle>
    <vehicle id="134" type="passenger" depart="262.96">
        <route edges="117770556#4 920025287#0"/>
    </vehicle>
    <vehicle id="135" type="passenger" depart="264.93">