<?xml version="1.0" encoding="UTF-8"?>

<!-- generated on 2026-04-17 02:50:43.928449 by Eclipse SUMO randomTrips.py v1.26.0
<configuration>
    <net-file value="/Users/junlee/Desktop/2026-1/js/result/tradeoff_pet_top12_seed12_60min_20260417_024953/sumo_nets/cw_71666/network.net.xml"/>
    <output-trip-file value="/Users/junlee/Desktop/2026-1/js/result/tradeoff_pet_top12_seed12_60min_20260417_024953/sumo_nets/cw_71666/routes_seed49.trips.xml"/>
    <route-file value="/Users/junlee/Desktop/2026-1/js/result/tradeoff_pet_top12_seed12_60min_20260417_024953/sumo_nets/cw_71666/routes_seed49.rou.xml"/>
    <vehicle-class value="passenger"/>
    <seed value="49"/>
    <period value="2.9837683268410093"/>
</configuration>
-->

<!-- generated on 2026-04-17T02:50:43.899160+09:00 by Eclipse SUMO duarouter 1.26.0
<duarouterConfiguration xmlns:xsi="http://www.w3.org/2001/XMLSchema-instance" xsi:noNamespaceSchemaLocation="http://sumo.dlr.de/xsd/duarouterConfiguration.xsd">

    <input>
        <net-file value="/Users/junlee/Desktop/2026-1/js/result/tradeoff_pet_top12_seed12_60min_20260417_024953/sumo_nets/cw_71666/network.net.xml"/>
        <route-files value="/Users/junlee/Desktop/2026-1/js/result/tradeoff_pet_top12_seed12_60min_20260417_024953/sumo_nets/cw_71666/routes_seed49.trips.xml"/>
    </input>

    <output>
        <output-file value="/Users/junlee/Desktop/2026-1/js/result/tradeoff_pet_top12_seed12_60min_20260417_024953/sumo_nets/cw_71666/routes_seed49.rou.xml"/>
        <alternatives-output value="NUL"/>
    </output>

    <time>
        <begin value="0.0"/>
        <end value="3600.0"/>
    </time>

    <report>
        <no-warnings value="true"/>
        <ignore-errors value="true"/>
        <no-step-log value="true"/>
    </report>

</duarouterConfiguration>
-->

<routes xmlns:xsi="http://www.w3.org/2001/XMLSchema-instance" xsi:noNamespaceSchemaLocation="http://sumo.dlr.de/xsd/routes_file.xsd">
    <vType id="passenger" vClass="passenger"/>
    <vehicle id="0" type="passenger" depart="0.00">
        <route edges="-117914351#2 -117914351#0 -117914348#1 -117914348#0 420331831 -1126339777#1 -1126339777#0 -913009311"/>
    </vehicle>
    <vehicle id="1" type="passenger" depart="2.98">
        <route edges="-218773868#4 -218773868#3 -218773868#2 -218773868#1 -218773868#0 -913009312#8 -913009312#7 -913009312#6 -913009312#5 -913009312#4 117914343#0 117914343#1 117914343#2 381452132"/>
    </vehicle>
    <vehicle id="2" type="passenger" depart="5.97">
        <route edges="117914343#2 381452132 -420331825#4 -420331825#3 -420331830 -381447836#2 -381447836#0 381447818 -117914348#2"/>
    </vehicle>
    <vehicle id="3" type="passenger" depart="8.95">
        <route edges="-117914348#1 -117914348#0 -381447829#0 -913009312#4 117914343#0 117914343#1 381452108#0 381452108#1"/>
    </vehicle>
    <vehicle id="4" type="passenger" depart="11.94">
        <route edges="-381447833#1 420331827 -218773868#2 -218773868#1 -218773868#0 -913009312#8 -913009312#7 -913009312#6 -913009312#5 -913009312#4 117914343#0 117914343#1 381452108#0"/>
    </vehicle>
    <vehicle id="5" type="passenger" depart="14.92">
        <route edges="381447831 -218773868#3 -218773868#2 -218773868#1 -218773868#0 -913009312#8 -913009312#7 -913009312#6 -913009312#5 -913009312#4 117914343#0 117914343#1"/>
    </vehicle>
    <vehicle id="6" type="passenger" depart="17.90">
        <route edges="420331825#1 420331825#2 420331825#3 420331825#4 -913009312#4 -913009312#3 -913009312#2 -913009312#1 1126339777#0 1126339777#1 244215399"/>
    </vehicle>
    <vehicle id="7" type="passenger" depart="20.89">
        <route edges="218773868#3 -381447817#1 -381447817#0 381447836#2 381447836#3 -601902513#0"/>
    </vehicle>
    <vehicle id="8" type="passenger" depart="23.87">
        <route edges="-381452167 117914352#1 420317543#1 244215552#1 520307306 913009311 913009312#1 913009312#2 913009312#3 913009312#4 913009312#5 913009312#6 913009312#7 913009312#8 913009312#9 218773868#1 218773868#2 218773868#3 -381447831"/>
    </vehicle>
    <vehicle id="9" type="passenger" depart="26.85">
        <route edges="-913009312#1 1126339777#0 1126339777#1 -420331831 -381447829#0 913009312#5 913009312#6 913009312#7 913009312#8 913009312#9 218773868#1 218773868#2 -420331827"/>
    </vehicle>
    <vehicle id="10" type="passenger" depart="29.84">
        <route edges="381452175#0 381452175#1 381452175#2 -381452122#3 913009312#9 381447835#0 381447835#1 381447835#2 381447835#3 913009312#6 913009312#7 913009312#8 381452122#3 -381452175#2"/>
    </vehicle>
    <vehicle id="11" type="passenger" depart="32.82">
        <route edges="381447829#0 117914348#0 381447834#1"/>
    </vehicle>
    <vehicle id="12" type="passenger" depart="35.81">
        <route edges="381447836#2 381447836#3 -601902513#0 420331825#4 -913009312#4 117914343#0 381452104#0 381452104#1 -420319840#1 -420319840#0 -381452167 117914352#1 420317543#1 244215552#1 520307306"/>
    </vehicle>
    <vehicle id="13" type="passenger" depart="38.79">
        <route edges="-381452104#2 -381452104#1 381452174#0"/>
    </vehicle>
    <vehicle id="14" type="passenger" depart="41.77">
        <route edges="-117914351#0 -117914348#1 -117914348#0 -381447829#0 913009312#5 913009312#6 913009312#7 913009312#8 381452122#3 -381452175#2 -381452175#1 -381452175#0"/>
    </vehicle>
    <vehicle id="15" type="passenger" depart="44.76">
        <route edges="381447817#0 420331825#2 420331825#3 420331825#4 913009312#5 913009312#6 913009312#7 913009312#8 381452122#3 -381452175#2 -420319847"/>
    </vehicle>
    <vehicle id="16" type="passenger" depart="47.74">
        <route edges="1126339777#1 -420331831 -381447829#0 -381452132"/>
    </vehicle>
    <vehicle id="17" type="passenger" depart="50.72">
        <route edges="-381452174#0 -381452104#0 117914343#1 117914343#2 381452132 -913009312#4"/>
    </vehicle>
    <vehicle id="18" type="passenger" depart="53.71">
        <route edges="381447827 913009313#1 913009311 1126339777#0 1126339777#1 -420331831 117914348#0 117914348#1 117914351#0 381447836#0"/>
    </vehicle>
    <vehicle id="19" type="passenger" depart="56.69">
        <route edges="117914343#0 117914343#1 117914343#2 381452132 -420331825#4 -420331825#3 -420331830"/>
    </vehicle>
    <vehicle id="20" type="passenger" depart="59.68">
        <route edges="913009312#6 913009312#7 913009312#8 381452122#3 -381452175#2 -381452175#1 -381452175#0 -420319848#1 -420319848#0 -117914343#2 -117914343#1 381452104#0 381452174#0 381452174#1"/>
    </vehicle>
    <vehicle id="21" type="passenger" depart="62.66">
        <route edges="117914352#0 117914352#1 420317543#1 244215552#1 520307306 913009311 1126339777#0 1126339777#1 -420331831 117914348#0 117914348#1 117914348#2 117914348#3"/>
    </vehicle>
    <vehicle id="22" type="passenger" depart="65.64">
        <route edges="-218773868#0 -913009312#8 -913009312#7 -913009312#6 -913009312#5 381447829#0 420331831 -1126339777#1 -1126339777#0 913009312#1 913009312#2"/>
    </vehicle>
    <vehicle id="23" type="passenger" depart="68.63">
        <route edges="420319844 -381452122#3 -913009312#8 -913009312#7 -913009312#6 -913009312#5 -420331825#4 -420331825#3 -420331825#2 -420331825#1 -117914351#2"/>
    </vehicle>
    <vehicle id="24" type="passenger" depart="71.61">
        <route edges="381447836#3 -601902513#0 -381447833#1 -381447833#0 218773868#2 -420331827"/>
    </vehicle>
    <vehicle id="25" type="passenger" depart="74.59">
        <route edges="381447835#1 381447835#2 381447835#3 -913009312#5 -913009312#4"/>
    </vehicle>
    <vehicle id="26" type="passenger" depart="77.58">
        <route edges="-420319848#0 381452132 -420331825#4 -381447833#1 420331827 -218773868#2 -218773868#1 -218773868#0"/>
    </vehicle>
    <vehicle id="27" type="passenger" depart="80.56">
        <route edges="-381452104#0 -117914343#0 -913009312#3 -913009312#2"/>
    </vehicle>
    <vehicle id="28" type="passenger" depart="83.55">
        <route edges="-913009312#3 -913009312#2 -913009312#1 1126339777#0 1126339777#1 -420331831 -381447829#0 913009312#5"/>
    </vehicle>
    <vehicle id="29" type="passenger" depart="86.53">
        <route edges="-218773868#3 -218773868#2 -218773868#1 -218773868#0 -913009312#8 -913009312#7 -913009312#6 -913009312#5 381447829#0 -601902513#1"/>
    </vehicle>
    <vehicle id="30" type="passenger" depart="89.51">
        <route edges="420331825#0 420331825#1 -381447817#0 381447834#0"/>
    </vehicle>
    <vehicle id="31" type="passenger" depart="92.50">
        <route edges="913009312#4 -381452132 -117914343#2 -117914343#1 381452104#0 381452104#1 -420319840#1 -420319840#0 -381452167 117914352#1 420317543#1 244215552#1"/>
    </vehicle>
    <vehicle id="32" type="passenger" depart="95.48">
        <route edges="381447834#0 -117914348#0 -381447829#0 -913009312#4 117914343#0 381452104#0 381452104#1 -420319840#1 -420319840#0 -381452167"/>
    </vehicle>
    <vehicle id="33" type="passenger" depart="98.46">
        <route edges="-601902513#0 420331825#4 381447829#0 117914348#0 117914348#1"/>
    </vehicle>
    <vehicle id="34" type="passenger" depart="101.45">
        <route edges="420331825#3 420331825#4 913009312#5 913009312#6 913009312#7 913009312#8 913009312#9 381447835#0"/>
    </vehicle>
    <vehicle id="35" type="passenger" depart="104.43">
        <route edges="-420331827 381447833#1 420331825#4"/>
    </vehicle>
    <vehicle id="36" type="passenger" depart="107.42">
        <route edges="381447827 913009313#1 913009311 913009312#1 913009312#2 913009312#3 117914343#0 381452104#0 381452104#1 381452104#2"/>
    </vehicle>
    <vehicle id="37" type="passenger" depart="110.40">
        <route edges="-381447836#0 -117914351#0 -117914348#1 -117914348#0 -381447829#0 913009312#5 913009312#6 913009312#7 913009312#8 381452122#3 -381452175#2 -381452175#1"/>
    </vehicle>
    <vehicle id="38" type="passenger" depart="113.38">
        <route edges="381447817#0 420331825#2 420331825#3 420331825#4 -913009312#4 -913009312#3 -913009312#2"/>
    </vehicle>
    <vehicle id="39" type="passenger" depart="116.37">
        <route edges="-381452174#0 -381452104#0 -117914343#0 913009312#4 -420331825#4 601902513#0"/>
    </vehicle>
    <vehicle id="40" type="passenger" depart="119.35">
        <route edges="913009312#6 913009312#7 913009312#8 913009312#9 381447835#0 381447835#1 381447835#2"/>
    </vehicle>
    <vehicle id="41" type="passenger" depart="122.33">
        <route edges="913009312#8 381452122#3 -381452175#2 -381452175#1 -381452175#0 -420319848#1 -420319848#0 -117914343#2 -117914343#1 381452104#0 381452104#1"/>
    </vehicle>
    <vehicle id="42" type="passenger" depart="125.32">
        <route edges="-913009312#6 -913009312#5 -913009312#4 -913009312#3 -913009312#2 -913009312#1 -913009311 -913009313#1 -381447827"/>
    </vehicle>
    <vehicle id="43" type="passenger" depart="128.30">
        <route edges="218773868#1 218773868#2 -420331827 381447833#1 420331825#4 -913009312#4 -913009312#3 -913009312#2 -913009312#1 420335669"/>
    </vehicle>
    <vehicle id="44" type="passenger" depart="131.29">
        <route edges="218773868#2 -420331827 381447833#1 420331825#4 -913009312#4 117914343#0 117914343#1 381452108#0 381452108#1"/>
    </vehicle>
    <vehicle id="45" type="passenger" depart="134.27">
        <route edges="-420331830 381447836#3 -601902513#0 420331825#4 -381452132 -117914343#2"/>
    </vehicle>
    <vehicle id="46" type="passenger" depart="137.25">
        <route edges="117914343#2 381452132 -420331825#4 -420331825#3 -420331825#2 -420331825#1 -420331825#0"/>
    </vehicle>
    <vehicle id="47" type="passenger" depart="140.24">
        <route edges="218773868#2 -420331827 381447833#1 420331825#4 913009312#5 913009312#6"/>
    </vehicle>
    <vehicle id="48" type="passenger" depart="143.22">
        <route edges="913009312#4 -420331825#4 601902513#0"/>
    </vehicle>
    <vehicle id="49" type="passenger" depart="146.20">
        <route edges="381447834#0 117914348#1"/>
    </vehicle>
    <vehicle id="50" type="passenger" depart="149.19">
        <route edges="117914351#0 117914351#2 420331825#1 420331825#2 420331825#3 601902513#0"/>
    </vehicle>
    <vehicle id="51" type="passenger" depart="152.17">
        <route edges="-1126339777#1 -1126339777#0 913009312#1 913009312#2 913009312#3 913009312#4 -420331825#4 -420331825#3 -420331825#2 -381447817#0 381447834#0 -117914348#0"/>
    </vehicle>
    <vehicle id="52" type="passenger" depart="155.16">
        <route edges="-117914352#0 420317543#0 420317543#1 244215552#1 520307306 913009311 913009312#1 913009312#2 913009312#3 913009312#4 -420331825#4 -381447833#1 420331827 -218773868#2 -218773868#1 -218773868#0 -913009312#8 -913009312#7 -913009312#6"/>
    </vehicle>
    <vehicle id="53" type="passenger" depart="158.14">
        <route edges="913009313#1 913009311 420335669"/>
    </vehicle>
    <vehicle id="54" type="passenger" depart="161.12">
        <route edges="218773868#1 218773868#2 -420331827 381447833#1 601902513#0 601902513#1 420331831 -1126339777#1 -1126339777#0 913009312#1 913009312#2 913009312#3"/>
    </vehicle>
    <vehicle id="55" type="passenger" depart="164.11">
        <route edges="-381452174#1 -381452174#0 -381452104#0 -117914343#0 913009312#4 381447829#0 117914348#0 117914348#1 117914348#2 -381447818"/>
    </vehicle>
    <vehicle id="56" type="passenger" depart="167.09">
        <route edges="-381452108#1 -381452108#0 -117914343#1 -117914343#0 913009312#4 381447829#0 117914348#0 117914348#1 117914351#0 117914351#2 420331825#1"/>
    </vehicle>
    <vehicle id="57" type="passenger" depart="170.07">
        <route edges="420331827 218773868#3 218773868#4"/>
    </vehicle>
    <vehicle id="58" type="passenger" depart="173.06">
        <route edges="-381447833#1 420331827 -218773868#2 -218773868#1 -218773868#0 -913009312#8 -913009312#7 -913009312#6 -913009312#5 381447829#0 -601902513#1 -601902513#0"/>
    </vehicle>
    <vehicle id="59" type="passenger" depart="176.04">
        <route edges="-381452175#1 -381452175#0 -420319848#1 -420319848#0 381452132 913009312#5 913009312#6 913009312#7 913009312#8 913009312#9 218773868#1 218773868#2"/>
    </vehicle>
    <vehicle id="60" type="passenger" depart="179.03">
        <route edges="381452174#0 420319840#0 420319840#1 -381452104#1 -381452104#0 -117914343#0 913009312#4 381447829#0 117914348#0 117914348#1 117914351#0 117914351#2 420331825#1"/>
    </vehicle>
    <vehicle id="61" type="passenger" depart="182.01">
        <route edges="381447817#1 -218773868#3 -218773868#2 -218773868#1 -218773868#0 381452122#3 -420319844"/>
    </vehicle>
    <vehicle id="62" type="passenger" depart="184.99">
        <route edges="-420331825#3 -420331830 381447836#3 -601902513#0 420331825#4 -381452132 420319848#0 420319848#1 381452175#0 381452175#1 381452175#2 -381452122#3"/>
    </vehicle>
    <vehicle id="63" type="passenger" depart="187.98">
        <route edges="-244215399 -420331831 -601902513#1 -381447836#3 -381447836#2 -381447836#0 -117914351#0 -117914348#1"/>
    </vehicle>
    <vehicle id="64" type="passenger" depart="190.96">
        <route edges="-381447817#0 381447836#2 420331830 420331825#3 601902513#0"/>
    </vehicle>
    <vehicle id="65" type="passenger" depart="193.94">
        <route edges="117914343#2 381452132 913009312#5"/>
    </vehicle>
    <vehicle id="66" type="passenger" depart="196.93">
        <route edges="117914343#2 381452132 -913009312#4 117914343#0 381452104#0 381452104#1 -420319840#1 -420319840#0 -381452167 -117914352#0 -420317540"/>
    </vehicle>
    <vehicle id="67" type="passenger" depart="199.91">
        <route edges="-381452175#2 -381452175#1 -381452175#0 -420319848#1 -420319848#0 381452132 -420331825#4 -381447833#1 420331827 -218773868#2 -218773868#1 -218773868#0 -913009312#8"/>
    </vehicle>
    <vehicle id="68" type="passenger" depart="202.90">
        <route edges="381447833#1 420331825#4 -913009312#4 117914343#0 381452104#0 381452104#1 -420319840#1 -420319840#0 -381452167 -117914352#0 420317543#0 -420317544#0"/>
    </vehicle>
    <vehicle id="69" type="passenger" depart="205.88">
        <route edges="-381447817#1 420331825#2 420331825#3 420331825#4 -913009312#4 117914343#0 381452104#0 381452174#0 420319840#0"/>
    </vehicle>
    <vehicle id="70" type="passenger" depart="208.86">
        <route edges="381452172 -117914343#2 -117914343#1 381452104#0 381452104#1 -420319840#1 -420319840#0 -381452167"/>
    </vehicle>
    <vehicle id="71" type="passenger" depart="211.85">
        <route edges="-117914348#0 -381447829#0 -913009312#4 117914343#0 381452104#0 381452104#1 381452104#2"/>
    </vehicle>
    <vehicle id="72" type="passenger" depart="214.83">
        <route edges="601902513#1 117914348#0 -381447834#0 381447817#0 381447817#1 -218773868#3"/>
    </vehicle>
    <vehicle id="73" type="passenger" depart="217.82">
        <route edges="913009312#4 -381452132 -117914343#2 -117914343#1 381452104#0 381452174#0"/>
    </vehicle>
    <vehicle id="74" type="passenger" depart="220.80">
        <route edges="-381452132 -117914343#2 -117914343#1 -117914343#0 913009312#4 -420331825#4 -420331825#3 -420331830 -381447836#2 -381447836#0 381447818 -117914348#2"/>
    </vehicle>
    <vehicle id="75" type="passenger" depart="223.78">
        <route edges="381452104#0 381452104#1 -420319840#1 -420319840#0 -381452174#0 -381452104#0 -117914343#0 913009312#4 -420331825#4 -420331825#3 -420331825#2"/>
    </vehicle>
    <vehicle id="76" type="passenger" depart="226.77">
        <route edges="-381452175#1 -381452175#0 -420319848#1 -420319848#0 381452132 913009312#5 913009312#6 913009312#7"/>
    </vehicle>
    <vehicle id="77" type="passenger" depart="229.75">
        <route edges="-381447818 -117914351#0 -117914348#1 -117914348#0 -381447829#0 913009312#5 913009312#6 913009312#7 913009312#8 381452122#3 -381452175#2 -381452175#1 -381452175#0 -420319848#1"/>
    </vehicle>
    <vehicle id="78" type="passenger" depart="232.73">
        <route edges="117914352#1 420317543#1 244215552#1 520307306 913009311 913009312#1"/>
    </vehicle>
    <vehicle id="79" type="passenger" depart="235.72">
        <route edges="-117914351#0 -117914348#1 -117914348#0 -381447829#0 -913009312#4 117914343#0 381452104#0 381452104#1 -420319840#1 -420319840#0 -381452167 -117914352#0"/>
    </vehicle>
    <vehicle id="80" type="passenger" depart="238.70">
        <route edges="-218773868#0 -913009312#8 -913009312#7 -913009312#6 -913009312#5 -913009312#4 117914343#0 381452104#0 381452104#1 -420319840#1 -420319840#0 -381452174#0"/>
    </vehicle>
    <vehicle id="81" type="passenger" depart="241.69">
        <route edges="-420319848#1 -420319848#0 381452132 -420331825#4 -381447833#1 420331827 -218773868#2 -218773868#1 -218773868#0 -913009312#8"/>
    </vehicle>
    <vehicle id="82" type="passenger" depart="244.67">
        <route edges="-420331825#3 -420331830 381447836#3 -601902513#0 420331825#4 -913009312#4 117914343#0 117914343#1 381452108#0 -381452106"/>
    </vehicle>
    <vehicle id="83" type="passenger" depart="247.65">
        <route edges="117914352#1 420317543#1 244215552#1 520307306 913009311 1126339777#0 1126339777#1 -420331831 -601902513#1 -381447836#3"/>
    </vehicle>
    <vehicle id="84" type="passenger" depart="250.64">
        <route edges="-420317543#1 -420317544#0 381452167 420319840#0 420319840#1 -381452104#1 -381452104#0 -117914343#0 913009312#4 -420331825#4 -381447833#1 420331827 -218773868#2"/>
    </vehicle>
    <vehicle id="85" type="passenger" depart="253.62">
        <route edges="-117914351#0 -117914348#1 -381447834#0 381447817#0 381447817#1 -218773868#3 -218773868#2 -218773868#1 -218773868#0 -913009312#8 -913009312#7 -913009312#6"/>
    </vehicle>
    <vehicle id="86" type="passenger" depart="256.60">
        <route edges="601902513#1 -381447829#0 913009312#5 913009312#6 913009312#7 913009312#8 381452122#3"/>
    </vehicle>
    <vehicle id="87" type="passenger" depart="259.59">
        <route edges="-381447818 381447836#0 381447836#2 381447836#3 -601902513#0 420331825#4 -913009312#4 117914343#0 381452104#0 381452104#1"/>
    </vehicle>
    <vehicle id="88" type="passenger" depart="262.57">
        <route edges="381447831 -218773868#3 -218773868#2 -218773868#1 -218773868#0 -913009312#8 -913009312#7 -913009312#6 -913009312#5 -913009312#4 117914343#0 381452104#0 381452174#0"/>
    </vehicle>
    <vehicle id="89" type="passenger" depart="265.56">
        <route edges="-1126339777#1 -1126339777#0 913009312#1 913009312#2 913009312#3 117914343#0 381452104#0 381452104#1 -420319840#1 -420319840#0 -381452167 117914352#1 -420317543#0"/>
    </vehicle>
    <vehicle id="90" type="passenger" depart="268.54">
        <route edges="913009311 420335669"/>
    </vehicle>
    <vehicle id="91" type="passenger" depart="271.52">
        <route edges="-381447817#0 381447836#2 381447836#3 -601902513#0 420331825#4 -913009312#4 117914343#0 381452104#0 381452174#0 420319840#0 420319840#1 -381452104#1"/>
    </vehicle>
    <vehicle id="92" type="passenger" depart="274.51">
        <route edges="-381447836#0 -117914351#0 -117914348#1 -117914348#0 -381447829#0 913009312#5 913009312#6 913009312#7 913009312#8 381452122#3 -381452175#2 -381452175#1 -381452175#0 -420319848#1"/>
    </vehicle>
    <vehicle id="93" type="passenger" depart="277.49">
        <route edges="913009312#1 913009312#2 913009312#3 913009312#4 913009312#5 913009312#6 913009312#7 913009312#8 913009312#9 218773868#1 218773868#2 -420331827"/>
    </vehicle>
    <vehicle id="94" type="passenger" depart="280.47">
        <route edges="1126339777#0 1126339777#1 -420331831 -381447829#0 -913009312#4 117914343#0 381452104#0 381452104#1 -420319840#1 -420319840#0 -381452167 117914352#1 420317543#1 244215552#1 520307306"/>
    </vehicle>
    <vehicle id="95" type="passenger" depart="283.46">
        <route edges="381452175#2 -381452122#3 -913009312#8 -913009312#7 -913009312#6 -913009312#5 -913009312#4 117914343#0 381452104#0 381452104#1 -420319840#1 -420319840#0 -381452167"/>
    </vehicle>
    <vehicle id="96" type="passenger" depart="286.44">
        <route edges="381447833#0 381447833#1 420331825#4 -913009312#4 117914343#0 381452104#0 381452104#1 -420319840#1 -420319840#0"/>
    </vehicle>
    <vehicle id="97" type="passenger" depart="289.43">
        <route edges="-381452104#0 -117914343#0 -913009312#3 -913009312#2 -913009312#1 -913009311 -913009313#1"/>
    </vehicle>
    <vehicle id="98" type="passenger" depart="292.41">
        <route edges="420331831 -1126339777#1 -1126339777#0 913009312#1 913009312#2 913009312#3 913009312#4 -381452132 -117914343#2 -117914343#1 -117914343#0 -913009312#3 -913009312#2 -913009312#1 1126339777#0"/>
    </vehicle>
    <vehicle id="99" type="passenger" depart="295.39">
        <route edges="420331830 420331825#3 420331825#4 -913009312#4 -913009312#3 -913009312#2 -913009312#1 1126339777#0 1126339777#1"/>
    </vehicle>
    <vehicle id="100" type="passenger" depart="298.38">
        <route edges="-218773868#3 -420331827 381447833#1 420331825#4 913009312#5 913009312#6"/>
    </vehicle>
    <vehicle id="101" type="passenger" depart="301.36">
        <route edges="-117914348#2 -117914348#1 -117914348#0 420331831 -1126339777#1 -1126339777#0 420335669"/>
    </vehicle>
    <vehicle id="102" type="passenger" depart="304.34">
        <route edges="-601902513#1 -601902513#0 420331825#4 -381452132 420319848#0 420319848#1 381452175#0 381452175#1 381452175#2"/>
    </vehicle>
    <vehicle id="103" type="passenger" depart="307.33">
        <route edges="913009312#9 381447835#0 381447835#1 381447835#2 381447835#3 -913009312#5 -913009312#4 117914343#0 381452104#0 381452104#1 -420319840#1 -420319840#0 -381452174#0 -381452104#0"/>
    </vehicle>
    <vehicle id="104" type="passenger" depart="310.31">
        <route edges="913009312#3 913009312#4 -381452132 -117914343#2 -117914343#1"/>
    </vehicle>
    <vehicle id="105" type="passenger" depart="313.30">
        <route edges="-117914343#2 -117914343#1 381452104#0 381452104#1 -420319840#1 -420319840#0 -381452167 -117914352#0"/>
    </vehicle>
    <vehicle id="106" type="passenger" depart="316.28">
        <route edges="-420319848#1 -420319848#0 381452132 381447829#0 117914348#0"/>
    </vehicle>
    <vehicle id="107" type="passenger" depart="319.26">
        <route edges="-381452108#0 -117914343#1 381452104#0 381452104#1 381452104#2"/>
    </vehicle>
    <vehicle id="108" type="passenger" depart="322.25">
        <route edges="117914348#0 -381447834#0 381447836#2 381447836#3 -601902513#0 420331825#4 -913009312#4 -913009312#3 -913009312#2 -913009312#1 1126339777#0 1126339777#1"/>
    </vehicle>
    <vehicle id="109" type="passenger" depart="325.23">
        <route edges="-117914348#0 -601902513#1 -601902513#0 -381447833#1 420331827 -218773868#2"/>
    </vehicle>
    <vehicle id="110" type="passenger" depart="328.21">
        <route edges="381452104#1 -420319840#1 -420319840#0 -381452167 117914352#1 420317544#1"/>
    </vehicle>
    <vehicle id="111" type="passenger" depart="331.20">
        <route edges="913009312#7 913009312#8 913009312#9 381447835#0 381447835#1 381447835#2 381447835#3 -913009312#5 -913009312#4 -913009312#3 -913009312#2 -913009312#1 1126339777#0 1126339777#1"/>
    </vehicle>
    <vehicle id="112" type="passenger" depart="334.18">
        <route edges="-117914348#1 -117914348#0 420331831 -1126339777#1 -1126339777#0 -913009311 -913009313#1"/>
    </vehicle>
    <vehicle id="113" type="passenger" depart="337.17">
        <route edges="-913009312#2 -913009312#1 1126339777#0 1126339777#1 -420331831 117914348#0"/>
    </vehicle>
    <vehicle id="114" type="passenger" depart="340.15">
        <route edges="117914348#1 117914351#0 381447836#0 381447836#2 381447836#3 601902513#1 -381447829#0 -420331825#4"/>
    </vehicle>
    <vehicle id="115" type="passenger" depart="343.13">
        <route edges="-381452174#0 -381452104#0 -117914343#0 913009312#4 381447829#0 117914348#0 117914348#1 117914351#0"/>
    </vehicle>
    <vehicle id="116" type="passenger" depart="346.12">
        <route edges="-381452108#1 -381452108#0 -117914343#1 -117914343#0 913009312#4 913009312#5 913009312#6 913009312#7 913009312#8 381452122#3 -381452175#2"/>
    </vehicle>
    <vehicle id="117" type="passenger" depart="349.10">
        <route edges="-420317543#0 117914352#0 117914352#1 420317543#1 244215552#1 520307306 913009311 1126339777#0 1126339777#1 -420331831 117914348#0 117914348#1 117914351#0 381447836#0"/>
    </vehicle>
    <vehicle id="118" type="passenger" depart="352.08">
        <route edges="381447817#0 420331825#2 420331825#3 420331825#4 -913009312#4 117914343#0 381452104#0 381452104#1 -420319840#1 -420319840#0 -381452167 117914352#1"/>
    </vehicle>
    <vehicle id="119" type="passenger" depart="355.07">
        <route edges="-117914343#0 913009312#4 381447829#0 420331831 -1126339777#1 -1126339777#0 913009312#1 913009312#2 913009312#3 117914343#0 117914343#1 117914343#2"/>
    </vehicle>
    <vehicle id="120" type="passenger" depart="358.05">
        <route edges="117914351#0 117914351#2 420331825#1 420331825#2 420331825#3 420331825#4 -913009312#4 117914343#0 381452104#0 381452104#1"/>
    </vehicle>
    <vehicle id="121" type="passenger" depart="361.04">
        <route edges="381447836#0 381447834#0 117914348#1"/>
    </vehicle>
    <vehicle id="122" type="passenger" depart="364.02">
        <route edges="-381452104#0 117914343#1 117914343#2 420319848#0 420319848#1 381452175#0 381452175#1 381452175#2 -381452122#3"/>
    </vehicle>
    <vehicle id="123" type="passenger" depart="367.00">
        <route edges="-420319848#1 -420319848#0 -117914343#2 381452108#0"/>
    </vehicle>
    <vehicle id="124" type="passenger" depart="369.99">
        <route edges="-381447836#2 381447834#0 -117914348#0 -601902513#1 -601902513#0 -420331825#3 -420331825#2"/>
    </vehicle>
    <vehicle id="125" type="passenger" depart="372.97">
        <route edges="381452110 -420319848#0 381452132 913009312#5 913009312#6 913009312#7 913009312#8 913009312#9 218773868#1 218773868#2 218773868#3 218773868#4"/>
    </vehicle>
    <vehicle id="126" type="passenger" depart="375.95">
        <route edges="1126339777#1 -420331831 -601902513#1 -601902513#0 -381447833#1 420331827 -218773868#2 -218773868#1 -218773868#0 -913009312#8 -913009312#7 -913009312#6"/>
    </vehicle>
    <vehicle id="127" type="passenger" depart="378.94">
        <route edges="117914348#1 117914351#0 117914351#2 420331825#1 420331825#2 420331825#3 420331825#4 -913009312#4 117914343#0 117914343#1"/>
    </vehicle>
    <vehicle id="128" type="passenger" depart="381.92">
        <route edges="381452175#0 381452175#1 381452175#2 -381452122#3 -913009312#8 -913009312#7 -913009312#6 -913009312#5 -381452132 420319848#0 420319848#1 420319848#2"/>
    </vehicle>
    <vehicle id="129" type="passenger" depart="384.91">
        <route edges="-381452104#2 -381452104#1 -381452104#0 117914343#1 117914343#2 420319848#0 420319848#1 381452175#0 381452175#1 381452175#2 -381452122#3"/>
    </vehicle>
    <vehicle id="130" type="passenger" depart="387.89">
        <route edges="381447817#1 -218773868#3 -420331827 381447833#1 601902513#0 -381447836#3 -381447836#2 -381447836#0 117914351#2"/>
    </vehicle>
    <vehicle id="131" type="passenger" depart="390.87">
        <route edges="381447835#0 381447835#1 381447835#2 381447835#3 913009312#6 913009312#7 913009312#8 381452122#3 -381452175#2 -381452175#1"/>
    </vehicle>
    <vehicle id="132" type="passenger" depart="393.86">
        <route edges="-381452175#2 -381452175#1 -381452175#0 -420319848#1 -420319848#0 381452132 -420331825#4 -420331825#3 -420331825#2 -381447817#0"/>
    </vehicle>
    <vehicle id="133" type="passenger" depart="396.84">
        <route edges="-420317543#0 117914352#0 117914352#1"/>
    </vehicle>
    <vehicle id="134" type="passenger" depart="399.82">