<?xml version="1.0" encoding="UTF-8"?>

<!-- generated on 2026-04-17 02:50:43.780008 by Eclipse SUMO randomTrips.py v1.26.0
<configuration>
    <net-file value="/Users/junlee/Desktop/2026-1/js/result/tradeoff_pet_top12_seed12_60min_20260417_024953/sumo_nets/cw_71666/network.net.xml"/>
    <output-trip-file value="/Users/junlee/Desktop/2026-1/js/result/tradeoff_pet_top12_seed12_60min_20260417_024953/sumo_nets/cw_71666/routes_seed49.trips.xml"/>
    <route-file value="/Users/junlee/Desktop/2026-1/js/result/tradeoff_pet_top12_seed12_60min_20260417_024953/sumo_nets/cw_71666/routes_seed49.rou.xml"/>
    <vehicle-class value="passenger"/>
    <seed value="49"/>
    <period value="2.9837683268410093"/>
</configuration>
-->

<routes xmlns:xsi="http://www.w3.org/2001/XMLSchema-instance" xsi:noNamespaceSchemaLocation="http://sumo.dlr.de/xsd/routes_file.xsd">
    <vType id="passenger" vClass="passenger"/>
    <trip id="0" depart="0.00" from="-117914351#2" to="-913009311" type="passenger"/>
    <trip id="1" depart="2.98" from="-218773868#4" to="381452132" type="passenger"/>
    <trip id="2" depart="5.97" from="117914343#2" to="-117914348#2" type="passenger"/>
    <trip id="3" depart="8.95" from="-117914348#1" to="381452108#1" type="passenger"/>
    <trip id="4" depart="11.94" from="-381447833#1" to="381452108#0" type="passenger"/>
    <trip id="5" depart="14.92" from="381447831" to="117914343#1" type="passenger"/>
    <trip id="6" depart="17.90" from="420331825#1" to="244215399" type="passenger"/>
    <trip id="7" depart="20.89" from="218773868#3" to="-601902513#0" type="passenger"/>
    <trip id="8" depart="23.87" from="-381452167" to="-381447831" type="passenger"/>
    <trip id="9" depart="26.85" from="-913009312#1" to="-420331827" type="passenger"/>
    <trip id="10" depart="29.84" from="381452175#0" to="-381452175#2" type="passenger"/>
    <trip id="11" depart="32.82" from="381447829#0" to="381447834#1" type="passenger"/>
    <trip id="12" depart="35.81" from="381447836#2" to="520307306" type="passenger"/>
    <trip id="13" depart="38.79" from="-381452104#2" to="381452174#0" type="passenger"/>
    <trip id="14" depart="41.77" from="-117914351#0" to="-381452175#0" type="passenger"/>
    <trip id="15" depart="44.76" from="381447817#0" to="-420319847" type="passenger"/>
    <trip id="16" depart="47.74" from="1126339777#1" to="-381452132" type="passenger"/>
    <trip id="17" depart="50.72" from="-381452174#0" to="-913009312#4" type="passenger"/>
    <trip id="18" depart="53.71" from="381447827" to="381447836#0" type="passenger"/>
    <trip id="19" depart="56.69" from="117914343#0" to="-420331830" type="passenger"/>
    <trip id="20" depart="59.68" from="913009312#6" to="381452174#1" type="passenger"/>
    <trip id="21" depart="62.66" from="117914352#0" to="117914348#3" type="passenger"/>
    <trip id="22" depart="65.64" from="-218773868#0" to="913009312#2" type="passenger"/>
    <trip id="23" depart="68.63" from="420319844" to="-117914351#2" type="passenger"/>
    <trip id="24" depart="71.61" from="381447836#3" to="-420331827" type="passenger"/>
    <trip id="25" depart="74.59" from="381447835#1" to="-913009312#4" type="passenger"/>
    <trip id="26" depart="77.58" from="-420319848#0" to="-218773868#0" type="passenger"/>
    <trip id="27" depart="80.56" from="-381452104#0" to="-913009312#2" type="passenger"/>
    <trip id="28" depart="83.55" from="-913009312#3" to="913009312#5" type="passenger"/>
    <trip id="29" depart="86.53" from="-218773868#3" to="-601902513#1" type="passenger"/>
    <trip id="30" depart="89.51" from="420331825#0" to="381447834#0" type="passenger"/>
    <trip id="31" depart="92.50" from="913009312#4" to="244215552#1" type="passenger"/>
    <trip id="32" depart="95.48" from="381447834#0" to="-381452167" type="passenger"/>
    <trip id="33" depart="98.46" from="-601902513#0" to="117914348#1" type="passenger"/>
    <trip id="34" depart="101.45" from="420331825#3" to="381447835#0" type="passenger"/>
    <trip id="35" depart="104.43" from="-420331827" to="420331825#4" type="passenger"/>
    <trip id="36" depart="107.42" from="381447827" to="381452104#2" type="passenger"/>
    <trip id="37" depart="110.40" from="-381447836#0" to="-381452175#1" type="passenger"/>
    <trip id="38" depart="113.38" from="381447817#0" to="-913009312#2" type="passenger"/>
    <trip id="39" depart="116.37" from="-381452174#0" to="601902513#0" type="passenger"/>
    <trip id="40" depart="119.35" from="913009312#6" to="381447835#2" type="passenger"/>
    <trip id="41" depart="122.33" from="913009312#8" to="381452104#1" type="passenger"/>
    <trip id="42" depart="125.32" from="-913009312#6" to="-381447827" type="passenger"/>
    <trip id="43" depart="128.30" from="218773868#1" to="420335669" type="passenger"/>
    <trip id="44" depart="131.29" from="218773868#2" to="381452108#1" type="passenger"/>
    <trip id="45" depart="134.27" from="-420331830" to="-117914343#2" type="passenger"/>
    <trip id="46" depart="137.25" from="117914343#2" to="-420331825#0" type="passenger"/>
    <trip id="47" depart="140.24" from="218773868#2" to="913009312#6" type="passenger"/>
    <trip id="48" depart="143.22" from="913009312#4" to="601902513#0" type="passenger"/>
    <trip id="49" depart="146.20" from="381447834#0" to="117914348#1" type="passenger"/>
    <trip id="50" depart="149.19" from="117914351#0" to="601902513#0" type="passenger"/>
    <trip id="51" depart="152.17" from="-1126339777#1" to="-117914348#0" type="passenger"/>
    <trip id="52" depart="155.16" from="-117914352#0" to="-913009312#6" type="passenger"/>
    <trip id="53" depart="158.14" from="913009313#1" to="420335669" type="passenger"/>
    <trip id="54" depart="161.12" from="218773868#1" to="913009312#3" type="passenger"/>
    <trip id="55" depart="164.11" from="-381452174#1" to="-381447818" type="passenger"/>
    <trip id="56" depart="167.09" from="-381452108#1" to="420331825#1" type="passenger"/>
    <trip id="57" depart="170.07" from="420331827" to="218773868#4" type="passenger"/>
    <trip id="58" depart="173.06" from="-381447833#1" to="-601902513#0" type="passenger"/>
    <trip id="59" depart="176.04" from="-381452175#1" to="218773868#2" type="passenger"/>
    <trip id="60" depart="179.03" from="381452174#0" to="420331825#1" type="passenger"/>
    <trip id="61" depart="182.01" from="381447817#1" to="-420319844" type="passenger"/>
    <trip id="62" depart="184.99" from="-420331825#3" to="-381452122#3" type="passenger"/>
    <trip id="63" depart="187.98" from="-244215399" to="-117914348#1" type="passenger"/>
    <trip id="64" depart="190.96" from="-381447817#0" to="601902513#0" type="passenger"/>
    <trip id="65" depart="193.94" from="117914343#2" to="913009312#5" type="passenger"/>
    <trip id="66" depart="196.93" from="117914343#2" to="-420317540" type="passenger"/>
    <trip id="67" depart="199.91" from="-381452175#2" to="-913009312#8" type="passenger"/>
    <trip id="68" depart="202.90" from="381447833#1" to="-420317544#0" type="passenger"/>
    <trip id="69" depart="205.88" from="-381447817#1" to="420319840#0" type="passenger"/>
    <trip id="70" depart="208.86" from="381452172" to="-381452167" type="passenger"/>
    <trip id="71" depart="211.85" from="-117914348#0" to="381452104#2" type="passenger"/>
    <trip id="72" depart="214.83" from="601902513#1" to="-218773868#3" type="passenger"/>
    <trip id="73" depart="217.82" from="913009312#4" to="381452174#0" type="passenger"/>
    <trip id="74" depart="220.80" from="-381452132" to="-117914348#2" type="passenger"/>
    <trip id="75" depart="223.78" from="381452104#0" to="-420331825#2" type="passenger"/>
    <trip id="76" depart="226.77" from="-381452175#1" to="913009312#7" type="passenger"/>
    <trip id="77" depart="229.75" from="-381447818" to="-420319848#1" type="passenger"/>
    <trip id="78" depart="232.73" from="117914352#1" to="913009312#1" type="passenger"/>
    <trip id="79" depart="235.72" from="-117914351#0" to="-117914352#0" type="passenger"/>
    <trip id="80" depart="238.70" from="-218773868#0" to="-381452174#0" type="passenger"/>
    <trip id="81" depart="241.69" from="-420319848#1" to="-913009312#8" type="passenger"/>
    <trip id="82" depart="244.67" from="-420331825#3" to="-381452106" type="passenger"/>
    <trip id="83" depart="247.65" from="117914352#1" to="-381447836#3" type="passenger"/>
    <trip id="84" depart="250.64" from="-420317543#1" to="-218773868#2" type="passenger"/>
    <trip id="85" depart="253.62" from="-117914351#0" to="-913009312#6" type="passenger"/>
    <trip id="86" depart="256.60" from="601902513#1" to="381452122#3" type="passenger"/>
    <trip id="87" depart="259.59" from="-381447818" to="381452104#1" type="passenger"/>
    <trip id="88" depart="262.57" from="381447831" to="381452174#0" type="passenger"/>
    <trip id="89" depart="265.56" from="-1126339777#1" to="-420317543#0" type="passenger"/>
    <trip id="90" depart="268.54" from="913009311" to="420335669" type="passenger"/>
    <trip id="91" depart="271.52" from="-381447817#0" to="-381452104#1" type="passenger"/>
    <trip id="92" depart="274.51" from="-381447836#0" to="-420319848#1" type="passenger"/>
    <trip id="93" depart="277.49" from="913009312#1" to="-420331827" type="passenger"/>
    <trip id="94" depart="280.47" from="1126339777#0" to="520307306" type="passenger"/>
    <trip id="95" depart="283.46" from="381452175#2" to="-381452167" type="passenger"/>
    <trip id="96" depart="286.44" from="381447833#0" to="-420319840#0" type="passenger"/>
    <trip id="97" depart="289.43" from="-381452104#0" to="-913009313#1" type="passenger"/>
    <trip id="98" depart="292.41" from="420331831" to="1126339777#0" type="passenger"/>
    <trip id="99" depart="295.39" from="420331830" to="1126339777#1" type="passenger"/>
    <trip id="100" depart="298.38" from="-218773868#3" to="913009312#6" type="passenger"/>
    <trip id="101" depart="301.36" from="-117914348#2" to="420335669" type="passenger"/>
    <trip id="102" depart="304.34" from="-601902513#1" to="381452175#2" type="passenger"/>
    <trip id="103" depart="307.33" from="913009312#9" to="-381452104#0" type="passenger"/>
    <trip id="104" depart="310.31" from="913009312#3" to="-117914343#1" type="passenger"/>
    <trip id="105" depart="313.30" from="-117914343#2" to="-117914352#0" type="passenger"/>
    <trip id="106" depart="316.28" from="-420319848#1" to="117914348#0" type="passenger"/>
    <trip id="107" depart="319.26" from="-381452108#0" to="381452104#2" type="passenger"/>
    <trip id="108" depart="322.25" from="117914348#0" to="1126339777#1" type="passenger"/>
    <trip id="109" depart="325.23" from="-117914348#0" to="-218773868#2" type="passenger"/>
    <trip id="110" depart="328.21" from="381452104#1" to="420317544#1" type="passenger"/>
    <trip id="111" depart="331.20" from="913009312#7" to="1126339777#1" type="passenger"/>
    <trip id="112" depart="334.18" from="-117914348#1" to="-913009313#1" type="passenger"/>
    <trip id="113" depart="337.17" from="-913009312#2" to="117914348#0" type="passenger"/>
    <trip id="114" depart="340.15" from="117914348#1" to="-420331825#4" type="passenger"/>
    <trip id="115" depart="343.13" from="-381452174#0" to="117914351#0" type="passenger"/>
    <trip id="116" depart="346.12" from="-381452108#1" to="-381452175#2" type="passenger"/>
    <trip id="117" depart="349.10" from="-420317543#0" to="381447836#0" type="passenger"/>
    <trip id="118" depart="352.08" from="381447817#0" to="117914352#1" type="passenger"/>
    <trip id="119" depart="355.07" from="-117914343#0" to="117914343#2" type="passenger"/>
    <trip id="120" depart="358.05" from="117914351#0" to="381452104#1" type="passenger"/>
    <trip id="121" depart="361.04" from="381447836#0" to="117914348#1" type="passenger"/>
    <trip id="122" depart="364.02" from="-381452104#0" to="-381452122#3" type="passenger"/>
    <trip id="123" depart="367.00" from="-420319848#1" to="381452108#0" type="passenger"/>
    <trip id="124" depart="369.99" from="-381447836#2" to="-420331825#2" type="passenger"/>
    <trip id="125" depart="372.97" from="381452110" to="218773868#4" type="passenger"/>
    <trip id="126" depart="375.95" from="1126339777#1" to="-913009312#6" type="passenger"/>
    <trip id="127" depart="378.94" from="117914348#1" to="117914343#1" type="passenger"/>
    <trip id="128" depart="381.92" from="381452175#0" to="420319848#2" type="passenger"/>
    <trip id="129" depart="384.91" from="-381452104#2" to="-381452122#3" type="passenger"/>
    <trip id="130" depart="387.89" from="381447817#1" to="117914351#2" type="passenger"/>
    <trip id="131" depart="390.87" from="381447835#0" to="-381452175#1" type="passenger"/>
    <trip id="132" depart="393.86" from="-381452175#2" to="-381447817#0" type="passenger"/>
    <trip id="133" depart="396.84" from="-420317543#0" to="117914352#1" type="passenger"/>
    <trip id="134" depart="399.82" from="-381447818" to="913009312#9" type="passenger"/>
    <trip id="135" depart="402.81" from="-381452108#0" to="381452167" type="passenger"/>
    <trip id="136" depart="405.79" from="-601902513#0" to="-381452175#2" type="passenger"/>
    <trip id="137" depart="408.78" from="381452104#1" to="-420331830" type="passenger"/>
    <trip id="138" depart="411.76" from="381452132" to="420331825#2" type="passenger"/>
    <trip id="139" depart="414.74" from="420331830" to="913009312#5" type="passenger"/>
    <trip id="140" depart="417.73" from="913009312#3" to="244215552#1" type="passenger"/>
    <trip id="141" depart="420.71" from="381447836#3" to="-913009312#5" type="passenger"/>
    <trip id="142" depart="423.70" from="-117914343#1" to="381447817#0" type="passenger"/>
    <trip id="143" depart="426.68" from="381447817#0" to="-420319840#0" type="passenger"/>
    <trip id="144" depart="429.66" from="381447817#0" to="420319840#0" type="passenger"/>
    <trip id="145" depart="432.65" from="-420317543#1" to="381447833#0" type="passenger"/>
    <trip id="146" depart="435.63" from="-420319848#2" to="-601902513#1" type="passenger"/>
    <trip id="147" depart="438.61" from="-117914351#2" to="-420319848#1" type="passenger"/>
    <trip id="148" depart="441.60" from="-913009312#3" to="117914348#1" type="passenger"/>
    <trip id="149" depart="444.58" from="-420331830" to="-913009312#3" type="passenger"/>
    <trip id="150" depart="447.57" from="-420331827" to="-117914351#2" type="passenger"/>
    <trip id="151" depart="450.55" from="-381452174#0" to="1126339777#1" type="passenger"/>
    <trip id="152" depart="453.53" from="-218773868#2" to="117914348#3" type="passenger"/>
    <trip id="153" depart="456.52" from="381447829#0" to="-420319844" type="passenger"/>
    <trip id="154" depart="459.50" from="-381452175#0" to="381452167" type="passenger"/>
    <trip id="155" depart="462.48" from="420319848#0" to="913009312#5" type="passenger"/>
    <trip id="156" depart="465.47" from="381447827" to="381452108#0" type="passenger"/>
    <trip id="157" depart="468.45" from="117914352#0" to="381452160" type="passenger"/>
    <trip id="158" depart="471.44" from="420319848#0" to="-381452110" type="passenger"/>
    <trip id="159" depart="474.42" from="420331831" to="-913009312#2" type="passenger"/>
    <trip id="160" depart="477.40" from="381452174#0" to="-913009312#3" type="passenger"/>
    <trip id="161" depart="480.39" from="913009312#4" to="-381447833#1" type="passenger"/>
    <trip id="162" depart="483.37" from="-381452108#0" to="-117914343#1" type="passenger"/>
    <trip id="163" depart="486.35" from="381452175#2" to="-381447829#0" type="passenger"/>
    <trip id="164" depart="489.34" from="-381447829#0" to="-913009311" type="passenger"/>
    <trip id="165" depart="492.32" from="-601902513#0" to="-381447827" type="passenger"/>
    <trip id="166" depart="495.31" from="-117914348#2" to="381447817#0" type="passenger"/>
    <trip id="167" depart="498.29" from="381447836#0" to="117914348#0" type="passenger"/>
    <trip id="168" depart="501.27" from="420317543#1" to="-420319844" type="passenger"/>
    <trip id="169" depart="504.26" from="-381447829#0" to="420317544#1" type="passenger"/>
    <trip id="170" depart="507.24" from="420319844" to="-117914348#0" type="passenger"/>
    <trip id="171" depart="510.22" from="117914351#0" to="117914351#2" type="passenger"/>
    <trip id="172" depart="513.21" from="601902513#1" to="381452108#1" type="passenger"/>
    <trip id="173" depart="516.19" from="420331825#4" to="381447835#0" type="passenger"/>
    <trip id="174" depart="519.18" from="-117914348#2" to="913009312#4" type="passenger"/>
    <trip id="175" depart="522.16" from="-381452104#1" to="-420317544#0" type="passenger"/>
    <trip id="176" depart="525.14" from="-381447829#0" to="-913009312#3" type="passenger"/>
    <trip id="177" depart="528.13" from="420319844" to="381447835#1" type="passenger"/>
    <trip id="178" depart="531.11" from="117914348#1" to="-381447827" type="passenger"/>
    <trip id="179" depart="534.09" from="-381447818" to="-381452175#2" type="passenger"/>
    <trip id="180" depart="537.08" from="381447829#0" to="381452174#0" type="passenger"/>
    <trip id="181" depart="540.06" from="381452167" to="913009312#5" type="passenger"/>
    <trip id="182" depart="543.05" from="117914348#1" to="218773868#3" type="passenger"/>
    <trip id="183" depart="546.03" from="-381447818" to="-381452167" type="passenger"/>
    <trip id="184" depart="549.01" from="420331825#2" to="-913009315" type="passenger"/>
    <trip id="185" depart="552.00" from="-1126339777#0" to="218773868#2" type="passenger"/>
    <trip id="186" depart="554.98" from="-381452104#2" to="420319848#1" type="passenger"/>
    <trip id="187" depart="557.96" from="-117914351#2" to="218773868#1" type="passenger"/>
    <trip id="188" depart="560.95" from="-420319848#1" to="381452167" type="passenger"/>
    <trip id="189" depart="563.93" from="913009312#2" to="-420331825#3" type="passenger"/>
    <trip id="190" depart="566.92" from="381452122#3" to="420331825#1" type="passenger"/>
    <trip id="191" depart="569.90" from="244215552#0" to="-420317544#0" type="passenger"/>
    <trip id="192" depart="572.88" from="381447835#0" to="-420331831" type="passenger"/>
    <trip id="193" depart="575.87" from="420317540" to="-381452104#0" type="passenger"/>
    <trip id="194" depart="578.85" from="117914343#2" to="-420331830" type="passenger"/>
    <trip id="195" depart="581.83" from="-117914348#2" to="117914352#1" type="passenger"/>
    <trip id="196" depart="584.82" from="-218773868#1" to="-520307306" type="passenger"/>
    <trip id="197" depart="587.80" from="381447836#2" to="-381447836#0" type="passenger"/>
    <trip id="198" depart="590.79" from="420319840#1" to="-913009312#7" type="passenger"/>
    <trip id="199" depart="593.77" from="-218773868#4" to="-117914348#2" type="passenger"/>
    <trip id="200" depart="596.75" from="-381452108#1" to="381447817#0" type="passenger"/>
    <trip id="201" depart="599.74" from="-218773868#0" to="-117914352#0" type="passenger"/>
    <trip id="202" depart="602.72" from="-381452174#1" to="-117914348#0" type="passenger"/>
    <trip id="203" depart="605.70" from="-381452108#1" to="-381452104#0" type="passenger"/>
    <trip id="204" depart="608.69" from="-117914343#2" to="-117914352#0" type="passenger"/>
    <trip id="205" depart="611.67" from="-117914351#0" to="-1126339777#0" type="passenger"/>
    <trip id="206" depart="614.66" from="-117914348#3" to="913009312#7" type="passenger"/>
    <trip id="207" depart="617.64" from="381452167" to="117914352#1" type="passenger"/>
    <trip id="208" depart="620.62" from="-913009312#2" to="-913009312#3" type="passenger"/>
    <trip id="209" depart="623.61" from="-381447818" to="-420319848#1" type="passenger"/>
    <trip id="210" depart="626.59" from="-381452108#0" to="244215552#1" type="passenger"/>
    <trip id="211" depart="629.58" from="-381447836#3" to="381447834#0" type="passenger"/>
    <trip id="212" depart="632.56" from="-381447836#2" to="381447818" type="passenger"/>
    <trip id="213" depart="635.54" from="381452175#2" to="-913009312#3" type="passenger"/>
    <trip id="214" depart="638.53" from="381452104#1" to="117914351#0" type="passenger"/>
    <trip id="215" depart="641.51" from="381447833#0" to="117914351#0" type="passenger"/>
    <trip id="216" depart="644.49" from="381447835#2" to="913009312#9" type="passenger"/>
    <trip id="217" depart="647.48" from="-381452160" to="420331831" type="passenger"/>
    <trip id="218" depart="650.46" from="420331825#3" to="381452108#1" type="passenger"/>
    <trip id="219" depart="653.45" from="913009312#7" to="-420319840#1" type="passenger"/>
    <trip id="220" depart="656.43" from="-913009312#4" to="381447835#0" type="passenger"/>
    <trip id="221" depart="659.41" from="381452174#1" to="-420331825#4" type="passenger"/>
    <trip id="222" depart="662.40" from="420331825#4" to="-381447829#0" type="passenger"/>
    <trip id="223" depart="665.38" from="913009313#1" to="-381452122#3" type="passenger"/>
    <trip id="224" depart="668.36" from="913009312#2" to="-117914351#2" type="passenger"/>
    <trip id="225" depart="671.35" from="-117914351#2" to="-420331830" type="passenger"/>
    <trip id="226" depart="674.33" from="-381452108#0" to="-381452122#3" type="passenger"/>
    <trip id="227" depart="677.32" from="420319844" to="-601902513#0" type="passenger"/>
    <trip id="228" depart="680.30" from="420319848#0" to="-381447836#2" type="passenger"/>
    <trip id="229" depart="683.28" from="-218773868#0" to="117914348#3" type="passenger"/>
    <trip id="230" depart="686.27" from="117914352#1" to="381447835#0" type="passenger"/>
    <trip id="231" depart="689.25" from="-381447833#1" to="-420317543#0" type="passenger"/>
    <trip id="232" depart="692.23" from="-420331831" to="-420331830" type="passenger"/>
    <trip id="233" depart="695.22" from="520307306" to="-420317544#0" type="passenger"/>
    <trip id="234" depart="698.20" from="-913009312#3" to="-420331825#0" type="passenger"/>
    <trip id="235" depart="701.19" from="420331825#3" to="381447833#0" type="passenger"/>
    <trip id="236" depart="704.17" from="420317543#0" to="-381447817#0" type="passenger"/>
    <trip id="237" depart="707.15" from="420331825#2" to="381452167" type="passenger"/>
    <trip id="238" depart="710.14" from="117914348#0" to="381452175#2" type="passenger"/>
    <trip id="239" depart="713.12" from="420319840#1" to="244215399" type="passenger"/>
    <trip id="240" depart="716.10" from="381447835#1" to="-420331825#3" type="passenger"/>
    <trip id="241" depart="719.09" from="520307306" to="117914348#1" type="passenger"/>
    <trip id="242" depart="722.07" from="381452132" to="-218773868#3" type="passenger"/>
    <trip id="243" depart="725.06" from="-381452174#0" to="-218773868#3" type="passenger"/>
    <trip id="244" depart="728.04" from="-117914348#1" to="420317544#1" type="passenger"/>
    <trip id="245" depart="731.02" from="381447818" to="381447829#0" type="passenger"/>
    <trip id="246" depart="734.01" from="381447834#0" to="117914348#2" type="passenger"/>
    <trip id="247" depart="736.99" from="420317540" to="-913009313#1" type="passenger"/>
    <trip id="248" depart="739.97" from="-381452104#2" to="381452104#1" type="passenger"/>
    <trip id="249" depart="742.96" from="-420317544#0" to="-117914343#2" type="passenger"/>
    <trip id="250" depart="745.94" from="117914348#2" to="381452108#1" type="passenger"/>
    <trip id="251" depart="748.93" from="-218773868#1" to="381447836#0" type="passenger"/>
    <trip id="252" depart="751.91" from="-381452174#1" to="381447835#0" type="passenger"/>
    <trip id="253" depart="754.89" from="420331825#2" to="381452175#2" type="passenger"/>
    <trip id="254" depart="757.88" from="-381447829#0" to="-381452167" type="passenger"/>
    <trip id="255" depart="760.86" from="601902513#0" to="-420319848#1" type="passenger"/>
    <trip id="256" depart="763.84" from="-381452104#0" to="-218773868#0" type="passenger"/>
    <trip id="257" depart="766.83" from="117914351#0" to="913009312#9" type="passenger"/>
    <trip id="258" depart="769.81" from="913009312#6" to="117914343#1" type="passenger"/>
    <trip id="259" depart="772.80" from="-117914351#2" to="381452175#0" type="passenger"/>
    <trip id="260" depart="775.78" from="-913009312#5" to="-218773868#0" type="passenger"/>
    <trip id="261" depart="778.76" from="-1126339777#1" to="-381447836#3" type="passenger"/>
    <trip id="262" depart="781.75" from="420331825#1" to="420317543#1" type="passenger"/>
    <trip id="263" depart="784.73" from="218773868#2" to="913009311" type="passenger"/>
    <trip id="264" depart="787.71" from="117914348#2" to="420317544#1" type="passenger"/>
    <trip id="265" depart="790.70" from="381447829#0" to="-420319840#1" type="passenger"/>
    <trip id="266" depart="793.68" from="-117914348#1" to="-420331831" type="passenger"/>
    <trip id="267" depart="796.67" from="-601902513#0" to="-520307306" type="passenger"/>
    <trip id="268" depart="799.65" from="913009312#1" to="-381452104#0" type="passenger"/>
    <trip id="269" depart="802.63" from="420317540" to="913009312#4" type="passenger"/>
    <trip id="270" depart="805.62" from="381452172" to="381447835#0" type="passenger"/>
    <trip id="271" depart="808.60" from="-913009312#6" to="117914352#1" type="passenger"/>
    <trip id="272" depart="811.58" from="-420319848#1" to="381452104#0" type="passenger"/>
    <trip id="273" depart="814.57" from="-420319848#2" to="-381447836#0" type="passenger"/>
    <trip id="274" depart="817.55" from="-1126339777#0" to="381452104#1" type="passenger"/>
    <trip id="275" depart="820.54" from="913009312#7" to="117914348#3" type="passenger"/>
    <trip id="276" depart="823.52" from="913009312#8" to="-218773868#3" type="passenger"/>
    <trip id="277" depart="826.50" from="117914352#1" to="381452167" type="passenger"/>
    <trip id="278" depart="829.49" from="-381447836#2" to="-381447817#0" type="passenger"/>
    <trip id="279" depart="832.47" from="117914351#0" to="-381452172" type="passenger"/>
    <trip id="280" depart="835.46" from="-913009312#7" to="-913009312#1" type="passenger"/>
    <trip id="281" depart="838.44" from="-913009312#3" to="381452104#2" type="passenger"/>
    <trip id="282" depart="841.42" from="-913009312#4" to="-218773868#1" type="passenger"/>
    <trip id="283" depart="844.41" from="381447818" to="420317544#1" type="passenger"/>
    <trip id="284" depart="847.39" from="-381447833#1" to="420319840#0" type="passenger"/>
    <trip id="285" depart="850.37" from="-117914343#1" to="-913009312#8" type="passenger"/>
    <trip id="286" depart="853.36" from="381447817#1" to="117914351#2" type="passenger"/>
    <trip id="287" depart="856.34" from="-381447818" to="-117914348#2" type="passenger"/>
    <trip id="288" depart="859.33" from="381447827" to="-913009312#5" type="passenger"/>
    <trip id="289" depart="862.31" from="913009312#2" to="-117914352#0" type="passenger"/>
    <trip id="290" depart="865.29" from="381447835#2" to="-381452132" type="passenger"/>
    <trip id="291" depart="868.28" from="-117914348#1" to="-381452132" type="passenger"/>
    <trip id="292" depart="871.26" from="-420331830" to="-913009315" type="passenger"/>
    <trip id="293" depart="874.24" from="-420319848#2" to="-381447817#0" type="passenger"/>
    <trip id="294" depart="877.23" from="-117914352#0" to="381447835#2" type="passenger"/>
    <trip id="295" depart="880.21" from="913009312#8" to="-381452132" type="passenger"/>
    <trip id="296" depart="883.20" from="-420319840#1" to="420331825#4" type="passenger"/>
    <trip id="297" depart="886.18" from="-381452108#0" to="-381452122#3" type="passenger"/>
    <trip id="298" depart="889.16" from="420331825#4" to="-218773868#2" type="passenger"/>
    <trip id="299" depart="892.15" from="420331825#4" to="117914351#0" type="passenger"/>
    <trip id="300" depart="895.13" from="-381452104#2" to="-913009312#1" type="passenger"/>
    <trip id="301" depart="898.11" from="1126339777#0" to="-420331825#0" type="passenger"/>
    <trip id="302" depart="901.10" from="117914348#2" to="420331825#1" type="passenger"/>
    <trip id="303" depart="904.08" from="-381452160" to="381452122#3" type="passenger"/>
    <trip id="304" depart="907.07" from="601902513#0" to="-913009312#5" type="passenger"/>
    <trip id="305" depart="910.05" from="381452132" to="-117914352#0" type="passenger"/>
    <trip id="306" depart="913.03" from="420319848#0" to="381452122#3" type="passenger"/>
    <trip id="307" depart="916.02" from="-913009312#3" to="601902513#0" type="passenger"/>
    <trip id="308" depart="919.00" from="117914348#0" to="420331830" type="passenger"/>
    <trip id="309" depart="921.98" from="-381452104#0" to="-381447833#1" type="passenger"/>
    <trip id="310" depart="924.97" from="-1126339777#0" to="-420319847" type="passenger"/>
    <trip id="311" depart="927.95" from="-420331830" to="-381447829#0" type="passenger"/>
    <trip id="312" depart="930.94" from="-117914352#0" to="-420317544#0" type="passenger"/>
    <trip id="313" depart="933.92" from="-117914343#1" to="420331825#4" type="passenger"/>
    <trip id="314" depart="936.90" from="-381447836#0" to="913009312#7" type="passenger"/>
    <trip id="315" depart="939.89" from="913009312#5" to="381447834#0" type="passenger"/>
    <trip id="316" depart="942.87" from="-601902513#1" to="218773868#2" type="passenger"/>
    <trip id="317" depart="945.85" from="381452172" to="-601902513#0" type="passenger"/>
    <trip id="318" depart="948.84" from="913009315" to="-381447829#0" type="passenger"/>
    <trip id="319" depart="951.82" from="-381452174#1" to="-913009312#8" type="passenger"/>
    <trip id="320" depart="954.81" from="-381452174#0" to="420317543#1" type="passenger"/>
    <trip id="321" depart="957.79" from="-218773868#2" to="-381447836#2" type="passenger"/>
    <trip id="322" depart="960.77" from="117914343#1" to="117914351#2" type="passenger"/>