<?xml version="1.0" encoding="UTF-8"?>

<!-- generated on 2026-04-17 02:50:42.232726 by Eclipse SUMO randomTrips.py v1.26.0
<configuration>
    <net-file value="/Users/junlee/Desktop/2026-1/js/result/tradeoff_pet_top12_seed12_60min_20260417_024953/sumo_nets/cw_71666/network.net.xml"/>
    <output-trip-file value="/Users/junlee/Desktop/2026-1/js/result/tradeoff_pet_top12_seed12_60min_20260417_024953/sumo_nets/cw_71666/routes_seed47.trips.xml"/>
    <route-file value="/Users/junlee/Desktop/2026-1/js/result/tradeoff_pet_top12_seed12_60min_20260417_024953/sumo_nets/cw_71666/routes_seed47.rou.xml"/>
    <vehicle-class value="passenger"/>
    <seed value="47"/>
    <period value="2.9436343347292144"/>
</configuration>
-->

<routes xmlns:xsi="http://www.w3.org/2001/XMLSchema-instance" xsi:noNamespaceSchemaLocation="http://sumo.dlr.de/xsd/routes_file.xsd">
    <vType id="passenger" vClass="passenger"/>
    <trip id="0" depart="0.00" from="-420331825#2" to="-913009312#2" type="passenger"/>
    <trip id="1" depart="2.94" from="-913009312#5" to="-420331825#0" type="passenger"/>
    <trip id="2" depart="5.89" from="117914343#2" to="-520307306" type="passenger"/>
    <trip id="3" depart="8.83" from="-117914348#1" to="-913009312#1" type="passenger"/>
    <trip id="4" depart="11.77" from="-117914343#1" to="-381447817#0" type="passenger"/>
    <trip id="5" depart="14.72" from="-381452175#0" to="913009312#5" type="passenger"/>
    <trip id="6" depart="17.66" from="1126339777#0" to="117914351#0" type="passenger"/>
    <trip id="7" depart="20.61" from="601902513#1" to="420331831" type="passenger"/>
    <trip id="8" depart="23.55" from="218773868#2" to="-381452167" type="passenger"/>
    <trip id="9" depart="26.49" from="117914348#1" to="-420331825#3" type="passenger"/>
    <trip id="10" depart="29.44" from="913009312#5" to="-117914348#0" type="passenger"/>
    <trip id="11" depart="32.38" from="-420331827" to="381447835#3" type="passenger"/>
    <trip id="12" depart="35.32" from="381447817#1" to="117914352#0" type="passenger"/>
    <trip id="13" depart="38.27" from="381452174#0" to="-381452174#0" type="passenger"/>
    <trip id="14" depart="41.21" from="420319848#0" to="601902513#0" type="passenger"/>
    <trip id="15" depart="44.15" from="-117914348#0" to="-420319848#1" type="passenger"/>
    <trip id="16" depart="47.10" from="-420331825#4" to="-420331830" type="passenger"/>
    <trip id="17" depart="50.04" from="117914351#2" to="-381452175#0" type="passenger"/>
    <trip id="18" depart="52.99" from="381447834#0" to="420331827" type="passenger"/>
    <trip id="19" depart="55.93" from="913009311" to="420319848#1" type="passenger"/>
    <trip id="20" depart="58.87" from="-381452108#1" to="381452122#3" type="passenger"/>
    <trip id="21" depart="61.82" from="381452175#0" to="244215552#1" type="passenger"/>
    <trip id="22" depart="64.76" from="381452175#0" to="-381452174#0" type="passenger"/>
    <trip id="23" depart="67.70" from="117914352#1" to="-381452175#1" type="passenger"/>
    <trip id="24" depart="70.65" from="117914348#2" to="-117914348#1" type="passenger"/>
    <trip id="25" depart="73.59" from="-420319840#0" to="381452174#1" type="passenger"/>
    <trip id="26" depart="76.53" from="-381452174#1" to="381452108#0" type="passenger"/>
    <trip id="27" depart="79.48" from="420317543#0" to="244215552#1" type="passenger"/>
    <trip id="28" depart="82.42" from="381447831" to="-381452110" type="passenger"/>
    <trip id="29" depart="85.37" from="1126339777#0" to="913009312#5" type="passenger"/>
    <trip id="30" depart="88.31" from="913009312#9" to="117914352#0" type="passenger"/>
    <trip id="31" depart="91.25" from="-913009312#4" to="913009312#8" type="passenger"/>
    <trip id="32" depart="94.20" from="117914352#0" to="420317543#0" type="passenger"/>
    <trip id="33" depart="97.14" from="-218773868#0" to="-381452175#2" type="passenger"/>
    <trip id="34" depart="100.08" from="420319840#0" to="117914351#0" type="passenger"/>
    <trip id="35" depart="103.03" from="381452175#1" to="-913009312#3" type="passenger"/>
    <trip id="36" depart="105.97" from="601902513#1" to="-117914348#0" type="passenger"/>
    <trip id="37" depart="108.91" from="-381452175#0" to="381447833#1" type="passenger"/>
    <trip id="38" depart="111.86" from="117914348#0" to="381447835#1" type="passenger"/>
    <trip id="39" depart="114.80" from="-913009312#8" to="381447836#3" type="passenger"/>
    <trip id="40" depart="117.75" from="420317543#0" to="-420319844" type="passenger"/>
    <trip id="41" depart="120.69" from="-117914343#1" to="-381452174#0" type="passenger"/>
    <trip id="42" depart="123.63" from="913009312#5" to="381447836#0" type="passenger"/>
    <trip id="43" depart="126.58" from="-381447836#0" to="601902513#1" type="passenger"/>
    <trip id="44" depart="129.52" from="-381447817#1" to="-381447831" type="passenger"/>
    <trip id="45" depart="132.46" from="381452175#2" to="-420331825#0" type="passenger"/>
    <trip id="46" depart="135.41" from="-420335669" to="-381452175#2" type="passenger"/>
    <trip id="47" depart="138.35" from="-1126339777#0" to="-381447827" type="passenger"/>
    <trip id="48" depart="141.29" from="-117914351#2" to="-117914343#1" type="passenger"/>
    <trip id="49" depart="144.24" from="-117914348#1" to="-381452104#0" type="passenger"/>
    <trip id="50" depart="147.18" from="117914343#2" to="1126339777#1" type="passenger"/>
    <trip id="51" depart="150.13" from="381452175#2" to="420317543#1" type="passenger"/>
    <trip id="52" depart="153.07" from="117914348#2" to="117914352#1" type="passenger"/>
    <trip id="53" depart="156.01" from="-1126339777#1" to="-218773868#0" type="passenger"/>
    <trip id="54" depart="158.96" from="420319848#0" to="601902513#1" type="passenger"/>
    <trip id="55" depart="161.90" from="-420319848#2" to="420331825#2" type="passenger"/>
    <trip id="56" depart="164.84" from="420331825#4" to="-381452172" type="passenger"/>
    <trip id="57" depart="167.79" from="-117914351#0" to="-381447827" type="passenger"/>
    <trip id="58" depart="170.73" from="-218773868#1" to="-117914351#0" type="passenger"/>
    <trip id="59" depart="173.67" from="117914352#0" to="-381452174#0" type="passenger"/>
    <trip id="60" depart="176.62" from="420331831" to="117914348#2" type="passenger"/>
    <trip id="61" depart="179.56" from="117914352#0" to="381452167" type="passenger"/>
    <trip id="62" depart="182.51" from="381447829#0" to="913009312#9" type="passenger"/>
    <trip id="63" depart="185.45" from="-218773868#0" to="1126339777#1" type="passenger"/>
    <trip id="64" depart="188.39" from="117914352#1" to="913009312#3" type="passenger"/>
    <trip id="65" depart="191.34" from="-601902513#1" to="-420331825#2" type="passenger"/>
    <trip id="66" depart="194.28" from="-420317544#1" to="420319848#1" type="passenger"/>
    <trip id="67" depart="197.22" from="1126339777#1" to="-381447833#0" type="passenger"/>
    <trip id="68" depart="200.17" from="913009312#7" to="-381447818" type="passenger"/>
    <trip id="69" depart="203.11" from="-913009312#7" to="381452175#0" type="passenger"/>
    <trip id="70" depart="206.05" from="420319844" to="-913009312#3" type="passenger"/>
    <trip id="71" depart="209.00" from="218773868#1" to="381452167" type="passenger"/>
    <trip id="72" depart="211.94" from="-117914351#2" to="381452175#1" type="passenger"/>
    <trip id="73" depart="214.89" from="381452175#2" to="1126339777#1" type="passenger"/>
    <trip id="74" depart="217.83" from="-244215399" to="-381452174#1" type="passenger"/>
    <trip id="75" depart="220.77" from="420317543#0" to="-381447836#2" type="passenger"/>
    <trip id="76" depart="223.72" from="-117914343#1" to="-218773868#3" type="passenger"/>
    <trip id="77" depart="226.66" from="-913009312#6" to="-913009312#7" type="passenger"/>
    <trip id="78" depart="229.60" from="-381452175#2" to="117914351#0" type="passenger"/>
    <trip id="79" depart="232.55" from="381447836#3" to="601902513#0" type="passenger"/>
    <trip id="80" depart="235.49" from="913009312#6" to="-381452104#1" type="passenger"/>
    <trip id="81" depart="238.43" from="381447836#0" to="-117914348#1" type="passenger"/>
    <trip id="82" depart="241.38" from="-381452175#0" to="-913009315" type="passenger"/>
    <trip id="83" depart="244.32" from="-117914351#2" to="381452175#0" type="passenger"/>
    <trip id="84" depart="247.27" from="420331825#4" to="381452104#0" type="passenger"/>
    <trip id="85" depart="250.21" from="381447817#1" to="117914348#3" type="passenger"/>
    <trip id="86" depart="253.15" from="420317540" to="218773868#2" type="passenger"/>
    <trip id="87" depart="256.10" from="-601902513#1" to="381447835#3" type="passenger"/>
    <trip id="88" depart="259.04" from="420331831" to="381452108#0" type="passenger"/>
    <trip id="89" depart="261.98" from="-218773868#1" to="913009312#1" type="passenger"/>
    <trip id="90" depart="264.93" from="117914343#2" to="-420319840#1" type="passenger"/>
    <trip id="91" depart="267.87" from="913009312#4" to="117914348#3" type="passenger"/>
    <trip id="92" depart="270.81" from="-420331825#3" to="-381447817#1" type="passenger"/>
    <trip id="93" depart="273.76" from="913009312#1" to="420331825#1" type="passenger"/>
    <trip id="94" depart="276.70" from="381452167" to="-420331825#3" type="passenger"/>
    <trip id="95" depart="279.65" from="-420331825#2" to="420331825#2" type="passenger"/>
    <trip id="96" depart="282.59" from="913009311" to="381447829#0" type="passenger"/>
    <trip id="97" depart="285.53" from="-381452175#0" to="-381452110" type="passenger"/>
    <trip id="98" depart="288.48" from="-381452104#2" to="420319848#2" type="passenger"/>
    <trip id="99" depart="291.42" from="420319840#1" to="913009312#4" type="passenger"/>
    <trip id="100" depart="294.36" from="-913009312#4" to="381452174#1" type="passenger"/>
    <trip id="101" depart="297.31" from="-420319840#1" to="381447835#1" type="passenger"/>
    <trip id="102" depart="300.25" from="-381447833#1" to="-913009315" type="passenger"/>
    <trip id="103" depart="303.19" from="-117914343#2" to="420331825#2" type="passenger"/>
    <trip id="104" depart="306.14" from="117914348#1" to="381447817#0" type="passenger"/>
    <trip id="105" depart="309.08" from="420331825#1" to="-420317544#0" type="passenger"/>
    <trip id="106" depart="312.03" from="-420317544#1" to="913009311" type="passenger"/>
    <trip id="107" depart="314.97" from="-913009312#1" to="117914343#0" type="passenger"/>
    <trip id="108" depart="317.91" from="913009312#5" to="117914343#1" type="passenger"/>
    <trip id="109" depart="320.86" from="117914348#0" to="-420319844" type="passenger"/>
    <trip id="110" depart="323.80" from="-117914343#1" to="244215552#1" type="passenger"/>
    <trip id="111" depart="326.74" from="420331825#3" to="420331825#1" type="passenger"/>
    <trip id="112" depart="329.69" from="601902513#0" to="218773868#3" type="passenger"/>
    <trip id="113" depart="332.63" from="381447817#0" to="381447818" type="passenger"/>
    <trip id="114" depart="335.57" from="-913009312#7" to="117914352#0" type="passenger"/>
    <trip id="115" depart="338.52" from="381447836#0" to="-420331827" type="passenger"/>
    <trip id="116" depart="341.46" from="-117914348#1" to="381447817#0" type="passenger"/>
    <trip id="117" depart="344.41" from="-381447836#2" to="-218773868#0" type="passenger"/>
    <trip id="118" depart="347.35" from="-601902513#1" to="-381452132" type="passenger"/>
    <trip id="119" depart="350.29" from="-381447836#0" to="244215399" type="passenger"/>
    <trip id="120" depart="353.24" from="-1126339777#0" to="-381447833#0" type="passenger"/>
    <trip id="121" depart="356.18" from="-117914352#0" to="-420331831" type="passenger"/>
    <trip id="122" depart="359.12" from="-420331831" to="381452122#3" type="passenger"/>
    <trip id="123" depart="362.07" from="381447831" to="381452108#0" type="passenger"/>
    <trip id="124" depart="365.01" from="117914343#2" to="-381447817#0" type="passenger"/>
    <trip id="125" depart="367.95" from="420317540" to="-913009311" type="passenger"/>
    <trip id="126" depart="370.90" from="420331830" to="-381447817#0" type="passenger"/>
    <trip id="127" depart="373.84" from="381447827" to="420335669" type="passenger"/>
    <trip id="128" depart="376.79" from="117914343#0" to="-913009312#4" type="passenger"/>
    <trip id="129" depart="379.73" from="420319844" to="-520307306" type="passenger"/>
    <trip id="130" depart="382.67" from="117914343#1" to="-913009312#3" type="passenger"/>
    <trip id="131" depart="385.62" from="601902513#0" to="-420319844" type="passenger"/>
    <trip id="132" depart="388.56" from="420319848#1" to="-381447831" type="passenger"/>
    <trip id="133" depart="391.50" from="381452106" to="1126339777#0" type="passenger"/>
    <trip id="134" depart="394.45" from="381447834#0" to="-381447817#0" type="passenger"/>
    <trip id="135" depart="397.39" from="1126339777#0" to="913009312#7" type="passenger"/>
    <trip id="136" depart="400.33" from="-420331825#3" to="-117914343#2" type="passenger"/>
    <trip id="137" depart="403.28" from="381447829#0" to="-218773868#1" type="passenger"/>
    <trip id="138" depart="406.22" from="-381452122#3" to="381447833#1" type="passenger"/>
    <trip id="139" depart="409.17" from="117914343#2" to="381452104#0" type="passenger"/>
    <trip id="140" depart="412.11" from="381452174#1" to="-420319840#1" type="passenger"/>
    <trip id="141" depart="415.05" from="381447818" to="520307306" type="passenger"/>
    <trip id="142" depart="418.00" from="-117914351#0" to="381452104#1" type="passenger"/>
    <trip id="143" depart="420.94" from="1126339777#1" to="-381452174#0" type="passenger"/>
    <trip id="144" depart="423.88" from="381447818" to="-1126339777#1" type="passenger"/>
    <trip id="145" depart="426.83" from="420331825#3" to="244215552#1" type="passenger"/>
    <trip id="146" depart="429.77" from="381447831" to="117914351#2" type="passenger"/>
    <trip id="147" depart="432.71" from="420317543#0" to="-381447817#1" type="passenger"/>
    <trip id="148" depart="435.66" from="-117914351#0" to="218773868#4" type="passenger"/>
    <trip id="149" depart="438.60" from="-381452160" to="420331825#2" type="passenger"/>
    <trip id="150" depart="441.55" from="-218773868#0" to="117914343#2" type="passenger"/>
    <trip id="151" depart="444.49" from="-381447817#1" to="-520307306" type="passenger"/>
    <trip id="152" depart="447.43" from="-420331825#1" to="913009312#5" type="passenger"/>
    <trip id="153" depart="450.38" from="-420317543#1" to="381447833#0" type="passenger"/>
    <trip id="154" depart="453.32" from="381447836#0" to="-420331825#1" type="passenger"/>
    <trip id="155" depart="456.26" from="-218773868#1" to="-420319844" type="passenger"/>
    <trip id="156" depart="459.21" from="-117914348#0" to="420317543#1" type="passenger"/>
    <trip id="157" depart="462.15" from="-381447818" to="-420319848#0" type="passenger"/>
    <trip id="158" depart="465.09" from="913009312#7" to="420319840#1" type="passenger"/>
    <trip id="159" depart="468.04" from="381452174#1" to="381447835#0" type="passenger"/>
    <trip id="160" depart="470.98" from="913009312#3" to="-913009312#2" type="passenger"/>
    <trip id="161" depart="473.93" from="117914351#2" to="381452132" type="passenger"/>
    <trip id="162" depart="476.87" from="381447836#0" to="-420331825#2" type="passenger"/>
    <trip id="163" depart="479.81" from="117914348#1" to="-913009312#2" type="passenger"/>
    <trip id="164" depart="482.76" from="-913009312#3" to="381447835#2" type="passenger"/>
    <trip id="165" depart="485.70" from="381452110" to="-117914343#1" type="passenger"/>
    <trip id="166" depart="488.64" from="913009312#7" to="-117914348#2" type="passenger"/>
    <trip id="167" depart="491.59" from="913009312#2" to="420335669" type="passenger"/>
    <trip id="168" depart="494.53" from="-913009312#3" to="218773868#3" type="passenger"/>
    <trip id="169" depart="497.47" from="-218773868#2" to="-420319848#1" type="passenger"/>
    <trip id="170" depart="500.42" from="381452132" to="-117914351#0" type="passenger"/>
    <trip id="171" depart="503.36" from="913009312#8" to="381452132" type="passenger"/>
    <trip id="172" depart="506.31" from="601902513#0" to="381447835#1" type="passenger"/>
    <trip id="173" depart="509.25" from="-913009312#8" to="601902513#0" type="passenger"/>
    <trip id="174" depart="512.19" from="117914348#0" to="381447836#0" type="passenger"/>
    <trip id="175" depart="515.14" from="-381447817#0" to="601902513#1" type="passenger"/>
    <trip id="176" depart="518.08" from="-381452104#1" to="-117914343#1" type="passenger"/>
    <trip id="177" depart="521.02" from="117914343#0" to="601902513#0" type="passenger"/>
    <trip id="178" depart="523.97" from="381447835#3" to="381452174#0" type="passenger"/>
    <trip id="179" depart="526.91" from="-117914352#0" to="381452122#3" type="passenger"/>
    <trip id="180" depart="529.85" from="520307306" to="-420319840#0" type="passenger"/>
    <trip id="181" depart="532.80" from="381447833#1" to="420319848#2" type="passenger"/>
    <trip id="182" depart="535.74" from="-1126339777#0" to="-420331825#1" type="passenger"/>
    <trip id="183" depart="538.69" from="-381452104#0" to="-381452122#3" type="passenger"/>
    <trip id="184" depart="541.63" from="520307306" to="-381447831" type="passenger"/>
    <trip id="185" depart="544.57" from="913009312#6" to="381447817#1" type="passenger"/>
    <trip id="186" depart="547.52" from="420317543#0" to="420317543#1" type="passenger"/>
    <trip id="187" depart="550.46" from="-420317544#0" to="381447835#1" type="passenger"/>
    <trip id="188" depart="553.40" from="-913009312#1" to="-913009312#1" type="passenger"/>
    <trip id="189" depart="556.35" from="913009312#6" to="-117914348#1" type="passenger"/>
    <trip id="190" depart="559.29" from="218773868#1" to="381447836#0" type="passenger"/>
    <trip id="191" depart="562.23" from="1126339777#1" to="-381452175#2" type="passenger"/>
    <trip id="192" depart="565.18" from="-117914348#3" to="-117914343#1" type="passenger"/>
    <trip id="193" depart="568.12" from="-381447836#3" to="-913009312#1" type="passenger"/>
    <trip id="194" depart="571.07" from="117914348#1" to="-420331825#1" type="passenger"/>
    <trip id="195" depart="574.01" from="913009312#7" to="420331825#2" type="passenger"/>
    <trip id="196" depart="576.95" from="913009315" to="381447818" type="passenger"/>
    <trip id="197" depart="579.90" from="-913009312#4" to="420319848#0" type="passenger"/>
    <trip id="198" depart="582.84" from="913009313#1" to="-117914351#2" type="passenger"/>
    <trip id="199" depart="585.78" from="-913009312#8" to="-117914351#2" type="passenger"/>
    <trip id="200" depart="588.73" from="-381447834#0" to="-381452167" type="passenger"/>
    <trip id="201" depart="591.67" from="-913009312#1" to="381452175#1" type="passenger"/>
    <trip id="202" depart="594.61" from="-420317544#0" to="-381447818" type="passenger"/>
    <trip id="203" depart="597.56" from="218773868#1" to="-1126339777#1" type="passenger"/>
    <trip id="204" depart="600.50" from="117914351#0" to="117914348#2" type="passenger"/>
    <trip id="205" depart="603.45" from="-913009312#8" to="913009312#5" type="passenger"/>
    <trip id="206" depart="606.39" from="-420319848#1" to="520307306" type="passenger"/>
    <trip id="207" depart="609.33" from="381447835#3" to="218773868#3" type="passenger"/>
    <trip id="208" depart="612.28" from="-420319848#0" to="420317543#1" type="passenger"/>
    <trip id="209" depart="615.22" from="117914351#0" to="420331831" type="passenger"/>
    <trip id="210" depart="618.16" from="-218773868#4" to="-420319840#1" type="passenger"/>
    <trip id="211" depart="621.11" from="-117914348#2" to="-381452132" type="passenger"/>
    <trip id="212" depart="624.05" from="420319840#1" to="117914348#1" type="passenger"/>
    <trip id="213" depart="626.99" from="381447827" to="-117914348#0" type="passenger"/>
    <trip id="214" depart="629.94" from="117914352#1" to="-117914348#2" type="passenger"/>
    <trip id="215" depart="632.88" from="420331830" to="-913009312#8" type="passenger"/>
    <trip id="216" depart="635.83" from="-218773868#1" to="-420317540" type="passenger"/>
    <trip id="217" depart="638.77" from="381447835#3" to="381447833#0" type="passenger"/>
    <trip id="218" depart="641.71" from="420331827" to="-420319840#0" type="passenger"/>
    <trip id="219" depart="644.66" from="381452106" to="-117914348#2" type="passenger"/>
    <trip id="220" depart="647.60" from="601902513#1" to="-913009312#7" type="passenger"/>
    <trip id="221" depart="650.54" from="381452110" to="-420319848#1" type="passenger"/>
    <trip id="222" depart="653.49" from="-218773868#1" to="420319848#2" type="passenger"/>
    <trip id="223" depart="656.43" from="913009312#4" to="-420331827" type="passenger"/>
    <trip id="224" depart="659.37" from="-218773868#2" to="-420331827" type="passenger"/>
    <trip id="225" depart="662.32" from="-381447836#0" to="-117914343#2" type="passenger"/>
    <trip id="226" depart="665.26" from="218773868#3" to="381447835#2" type="passenger"/>
    <trip id="227" depart="668.20" from="420319840#0" to="913009312#7" type="passenger"/>
    <trip id="228" depart="671.15" from="-381447817#1" to="-381452132" type="passenger"/>
    <trip id="229" depart="674.09" from="-1126339777#1" to="-913009312#2" type="passenger"/>
    <trip id="230" depart="677.04" from="381452104#1" to="218773868#2" type="passenger"/>
    <trip id="231" depart="679.98" from="-381447817#1" to="381452174#0" type="passenger"/>
    <trip id="232" depart="682.92" from="381452132" to="381452108#1" type="passenger"/>
    <trip id="233" depart="685.87" from="-420331830" to="381447833#0" type="passenger"/>
    <trip id="234" depart="688.81" from="913009315" to="-381452175#1" type="passenger"/>
    <trip id="235" depart="691.75" from="420319844" to="-381447833#1" type="passenger"/>
    <trip id="236" depart="694.70" from="-117914348#1" to="-381452174#0" type="passenger"/>
    <trip id="237" depart="697.64" from="381452122#3" to="-381447829#0" type="passenger"/>
    <trip id="238" depart="700.58" from="520307306" to="-381447831" type="passenger"/>
    <trip id="239" depart="703.53" from="117914348#0" to="-381447829#0" type="passenger"/>
    <trip id="240" depart="706.47" from="420331825#0" to="913009312#2" type="passenger"/>
    <trip id="241" depart="709.42" from="218773868#2" to="420331825#4" type="passenger"/>
    <trip id="242" depart="712.36" from="117914352#0" to="913009312#5" type="passenger"/>
    <trip id="243" depart="715.30" from="381447827" to="218773868#2" type="passenger"/>
    <trip id="244" depart="718.25" from="-117914343#1" to="381452175#0" type="passenger"/>
    <trip id="245" depart="721.19" from="381447817#0" to="218773868#2" type="passenger"/>
    <trip id="246" depart="724.13" from="381447833#0" to="-381447833#1" type="passenger"/>
    <trip id="247" depart="727.08" from="-381452132" to="-381447818" type="passenger"/>
    <trip id="248" depart="730.02" from="1126339777#0" to="420317543#0" type="passenger"/>
    <trip id="249" depart="732.96" from="1126339777#1" to="420319840#0" type="passenger"/>
    <trip id="250" depart="735.91" from="381447817#1" to="-601902513#1" type="passenger"/>
    <trip id="251" depart="738.85" from="913009311" to="-913009312#5" type="passenger"/>
    <trip id="252" depart="741.80" from="-381447836#2" to="-913009312#2" type="passenger"/>
    <trip id="253" depart="744.74" from="381452175#2" to="420331825#3" type="passenger"/>
    <trip id="254" depart="747.68" from="1126339777#1" to="-601902513#1" type="passenger"/>
    <trip id="255" depart="750.63" from="-420331827" to="-420319840#0" type="passenger"/>
    <trip id="256" depart="753.57" from="420331831" to="-520307306" type="passenger"/>
    <trip id="257" depart="756.51" from="420319844" to="-117914348#0" type="passenger"/>
    <trip id="258" depart="759.46" from="381452174#0" to="-381452175#2" type="passenger"/>
    <trip id="259" depart="762.40" from="-913009312#8" to="-381447817#0" type="passenger"/>
    <trip id="260" depart="765.34" from="420331827" to="381447834#1" type="passenger"/>
    <trip id="261" depart="768.29" from="381447817#0" to="-420331825#4" type="passenger"/>
    <trip id="262" depart="771.23" from="381447833#1" to="420331830" type="passenger"/>
    <trip id="263" depart="774.18" from="381447835#1" to="218773868#1" type="passenger"/>
    <trip id="264" depart="777.12" from="-381447833#0" to="-381452175#1" type="passenger"/>
    <trip id="265" depart="780.06" from="-381447834#0" to="420331825#1" type="passenger"/>
    <trip id="266" depart="783.01" from="420317543#0" to="-913009311" type="passenger"/>
    <trip id="267" depart="785.95" from="913009312#3" to="-420319848#0" type="passenger"/>
    <trip id="268" depart="788.89" from="381447835#0" to="-381452110" type="passenger"/>
    <trip id="269" depart="791.84" from="913009312#7" to="381447835#1" type="passenger"/>
    <trip id="270" depart="794.78" from="-381447836#0" to="420331825#4" type="passenger"/>
    <trip id="271" depart="797.72" from="913009311" to="381447835#0" type="passenger"/>
    <trip id="272" depart="800.67" from="-381452167" to="381447836#2" type="passenger"/>
    <trip id="273" depart="803.61" from="117914348#2" to="601902513#1" type="passenger"/>
    <trip id="274" depart="806.56" from="913009312#3" to="-420331825#3" type="passenger"/>
    <trip id="275" depart="809.50" from="420331831" to="601902513#1" type="passenger"/>
    <trip id="276" depart="812.44" from="218773868#1" to="-381452167" type="passenger"/>
    <trip id="277" depart="815.39" from="420319848#1" to="381452175#0" type="passenger"/>
    <trip id="278" depart="818.33" from="420319847" to="-420319847" type="passenger"/>
    <trip id="279" depart="821.27" from="420317540" to="117914348#3" type="passenger"/>
    <trip id="280" depart="824.22" from="420317540" to="-381452174#1" type="passenger"/>
    <trip id="281" depart="827.16" from="-117914348#1" to="913009312#1" type="passenger"/>
    <trip id="282" depart="830.10" from="420331831" to="-381447836#2" type="passenger"/>
    <trip id="283" depart="833.05" from="381447818" to="381452108#0" type="passenger"/>
    <trip id="284" depart="835.99" from="381452110" to="601902513#1" type="passenger"/>
    <trip id="285" depart="838.94" from="-381452104#0" to="420317543#0" type="passenger"/>
    <trip id="286" depart="841.88" from="381447835#2" to="-913009312#8" type="passenger"/>
    <trip id="287" depart="844.82" from="117914352#0" to="117914348#3" type="passenger"/>
    <trip id="288" depart="847.77" from="-381452174#1" to="-381447831" type="passenger"/>
    <trip id="289" depart="850.71" from="381447835#2" to="117914343#2" type="passenger"/>
    <trip id="290" depart="853.65" from="381452167" to="381447835#0" type="passenger"/>
    <trip id="291" depart="856.60" from="-381452104#2" to="244215399" type="passenger"/>
    <trip id="292" depart="859.54" from="420331825#3" to="-381452175#0" type="passenger"/>
    <trip id="293" depart="862.48" from="-420331825#3" to="-420331827" type="passenger"/>
    <trip id="294" depart="865.43" from="381447834#0" to="-381452132" type="passenger"/>
    <trip id="295" depart="868.37" from="-381452174#0" to="244215552#1" type="passenger"/>
    <trip id="296" depart="871.32" from="381452104#0" to="-420319847" type="passenger"/>
    <trip id="297" depart="874.26" from="-117914348#0" to="913009312#6" type="passenger"/>
    <trip id="298" depart="877.20" from="-381452104#2" to="-913009312#5" type="passenger"/>
    <trip id="299" depart="880.15" from="913009311" to="-420319848#0" type="passenger"/>
    <trip id="300" depart="883.09" from="-244215399" to="218773868#4" type="passenger"/>
    <trip id="301" depart="886.03" from="420331827" to="520307306" type="passenger"/>
    <trip id="302" depart="888.98" from="-420331825#1" to="-218773868#3" type="passenger"/>
    <trip id="303" depart="891.92" from="-381452104#2" to="381452167" type="passenger"/>
    <trip id="304" depart="894.86" from="-381452108#0" to="381447835#3" type="passenger"/>
    <trip id="305" depart="897.81" from="117914343#0" to="-420331830" type="passenger"/>
    <trip id="306" depart="900.75" from="-117914343#1" to="381452167" type="passenger"/>
    <trip id="307" depart="903.70" from="381447817#0" to="-381447817#1" type="passenger"/>
    <trip id="308" depart="906.64" from="420331825#0" to="381452132" type="passenger"/>
    <trip id="309" depart="909.58" from="-218773868#1" to="381447833#0" type="passenger"/>
    <trip id="310" depart="912.53" from="420331825#4" to="-381452132" type="passenger"/>
    <trip id="311" depart="915.47" from="-218773868#1" to="913009312#9" type="passenger"/>
    <trip id="312" depart="918.41" from="-420317544#1" to="-420331827" type="passenger"/>
    <trip id="313" depart="921.36" from="-381447817#0" to="381447836#0" type="passenger"/>
    <trip id="314" depart="924.30" from="-913009312#6" to="381452174#0" type="passenger"/>
    <trip id="315" depart="927.24" from="381447835#0" to="117914348#2" type="passenger"/>
    <trip id="316" depart="930.19" from="-420319848#2" to="117914352#1" type="passenger"/>
    <trip id="317" depart="933.13" from="913009315" to="381452175#2" type="passenger"/>
    <trip id="318" depart="936.08" from="913009312#8" to="-420319847" type="passenger"/>
    <trip id="319" depart="939.02" from="420317540" to="381452108#1" type="passenger"/>
    <trip id="320" depart="941.96" from="420317540" to="-381452175#1" type="passenger"/>
    <trip id="321" depart="944.91" from="244215552#1" to="-218773868#0" type="passenger"/>
    <trip id="322" depart="947.85" from="-913009312#6" to="-381452132" type="passenger"/>
    <trip id="323" depart="950.79" from="117914343#2" to="-420317543#0" type="passenger"/>