<?xml version="1.0" encoding="UTF-8"?>

<!-- generated on 2026-04-17 02:50:45.502918 by Eclipse SUMO randomTrips.py v1.26.0
<configuration>
    <net-file value="/Users/junlee/Desktop/2026-1/js/result/tradeoff_pet_top12_seed12_60min_20260417_024953/sumo_nets/cw_71666/network.net.xml"/>
    <output-trip-file value="/Users/junlee/Desktop/2026-1/js/result/tradeoff_pet_top12_seed12_60min_20260417_024953/sumo_nets/cw_71666/routes_seed51.trips.xml"/>
    <route-file value="/Users/junlee/Desktop/2026-1/js/result/tradeoff_pet_top12_seed12_60min_20260417_024953/sumo_nets/cw_71666/routes_seed51.rou.xml"/>
    <vehicle-class value="passenger"/>
    <seed value="51"/>
    <period value="2.7499221079611043"/>
</configuration>
-->

<!-- generated on 2026-04-17T02:50:45.470666+09:00 by Eclipse SUMO duarouter 1.26.0
<duarouterConfiguration xmlns:xsi="http://www.w3.org/2001/XMLSchema-instance" xsi:noNamespaceSchemaLocation="http://sumo.dlr.de/xsd/duarouterConfiguration.xsd">

    <input>
        <net-file value="/Users/junlee/Desktop/2026-1/js/result/tradeoff_pet_top12_seed12_60min_20260417_024953/sumo_nets/cw_71666/network.net.xml"/>
        <route-files value="/Users/junlee/Desktop/2026-1/js/result/tradeoff_pet_top12_seed12_60min_20260417_024953/sumo_nets/cw_71666/routes_seed51.trips.xml"/>
    </input>

    <output>
        <output-file value="/Users/junlee/Desktop/2026-1/js/result/tradeoff_pet_top12_seed12_60min_20260417_024953/sumo_nets/cw_71666/routes_seed51.rou.xml"/>
        <alternatives-output value="NUL"/>
    </output>

    <time>
        <begin value="0.0"/>
        <end value="3600.0"/>
    </time>

    <report>
        <no-warnings value="true"/>
        <ignore-errors value="true"/>
        <no-step-log value="true"/>
    </report>

</duarouterConfiguration>
-->

<routes xmlns:xsi="http://www.w3.org/2001/XMLSchema-instance" xsi:noNamespaceSchemaLocation="http://sumo.dlr.de/xsd/routes_file.xsd">
    <vType id="passenger" vClass="passenger"/>
    <vehicle id="0" type="passenger" depart="0.00">
        <route edges="-381452167 117914352#1 420317543#1 244215552#1 520307306 913009311 913009312#1 913009312#2 913009312#3 117914343#0"/>
    </vehicle>
    <vehicle id="1" type="passenger" depart="2.75">
        <route edges="-381447834#0 381447836#2 381447836#3 -601902513#0 420331825#4 -913009312#4 117914343#0 381452104#0 381452174#0 420319840#0"/>
    </vehicle>
    <vehicle id="2" type="passenger" depart="5.50">
        <route edges="-381452132 -117914343#2 -117914343#1 -117914343#0 913009312#4 381447829#0 117914348#0 117914348#1 117914351#0 117914351#2"/>
    </vehicle>
    <vehicle id="3" type="passenger" depart="8.25">
        <route edges="913009311 1126339777#0 1126339777#1 -420331831 -601902513#1 -601902513#0"/>
    </vehicle>
    <vehicle id="4" type="passenger" depart="11.00">
        <route edges="913009312#7 913009312#8 381452122#3 -381452175#2 -381452175#1 -381452175#0 -420319848#1 -420319848#0 -117914343#2 381452108#0"/>
    </vehicle>
    <vehicle id="5" type="passenger" depart="13.75">
        <route edges="117914352#0 117914352#1 420317543#1 244215552#1 520307306 913009311 1126339777#0 1126339777#1 -420331831 -601902513#1 -381447836#3 -381447836#2 -381447836#0 381447818"/>
    </vehicle>
    <vehicle id="6" type="passenger" depart="16.50">
        <route edges="244215552#1 520307306 913009311 913009312#1 913009312#2 913009312#3 913009312#4 -420331825#4 -420331825#3"/>
    </vehicle>
    <vehicle id="7" type="passenger" depart="19.25">
        <route edges="913009315 520307306 913009311 1126339777#0 1126339777#1 -420331831 -601902513#1 -601902513#0"/>
    </vehicle>
    <vehicle id="8" type="passenger" depart="22.00">
        <route edges="913009312#9 381447835#0 381447835#1 381447835#2 381447835#3 -913009312#5 -381452132 420319848#0 420319848#1 420319848#2"/>
    </vehicle>
    <vehicle id="9" type="passenger" depart="24.75">
        <route edges="-117914343#2 -117914343#1 -117914343#0 913009312#4 913009312#5 913009312#6 913009312#7 913009312#8 381452122#3 -381452175#2 -381452175#1 -381452175#0"/>
    </vehicle>
    <vehicle id="10" type="passenger" depart="27.50">
        <route edges="-381447836#0 -117914351#0 -117914348#1 -381447834#0 381447817#0"/>
    </vehicle>
    <vehicle id="11" type="passenger" depart="30.25">
        <route edges="-420331825#4 601902513#0 601902513#1 -381447829#0 -381452132 420319848#0 420319848#1 381452175#0"/>
    </vehicle>
    <vehicle id="12" type="passenger" depart="33.00">
        <route edges="913009311 913009312#1 913009312#2 913009312#3 117914343#0 381452104#0 381452104#1 -420319840#1 -420319840#0 -381452167 -117914352#0 420317543#0 -420317544#0 381452167"/>
    </vehicle>
    <vehicle id="13" type="passenger" depart="35.75">
        <route edges="-381452104#0 117914343#1 117914343#2 420319848#0 420319848#1 381452175#0 381452160"/>
    </vehicle>
    <vehicle id="14" type="passenger" depart="38.50">
        <route edges="-913009312#3 -913009312#2 -913009312#1 1126339777#0 1126339777#1 -420331831 -381447829#0 -381452132 420319848#0"/>
    </vehicle>
    <vehicle id="15" type="passenger" depart="41.25">
        <route edges="-913009312#8 -913009312#7 -913009312#6 -913009312#5 -913009312#4 -913009312#3 -913009312#2 -913009312#1 420335669"/>
    </vehicle>
    <vehicle id="16" type="passenger" depart="44.00">
        <route edges="913009312#9 381447835#0 381447835#1 381447835#2 381447835#3 -913009312#5 -913009312#4 117914343#0 381452104#0 381452174#0 420319840#0"/>
    </vehicle>
    <vehicle id="17" type="passenger" depart="46.75">
        <route edges="420319844 -381452122#3 -913009312#8 -913009312#7 -913009312#6 -913009312#5 -913009312#4 117914343#0 381452104#0 381452104#1 -420319840#1 -420319840#0 -381452167 117914352#1 420317544#1"/>
    </vehicle>
    <vehicle id="18" type="passenger" depart="49.50">
        <route edges="381447817#0 420331825#2 420331825#3 601902513#0 -381447836#3"/>
    </vehicle>
    <vehicle id="19" type="passenger" depart="52.25">
        <route edges="913009312#9 218773868#1 381447833#0 420331827 -218773868#2 -218773868#1 -218773868#0 -913009312#8"/>
    </vehicle>
    <vehicle id="20" type="passenger" depart="55.00">
        <route edges="-117914343#0 -913009312#3"/>
    </vehicle>
    <vehicle id="21" type="passenger" depart="57.75">
        <route edges="913009312#5 913009312#6 913009312#7 913009312#8 913009312#9 218773868#1 218773868#2 218773868#3 -381447817#1"/>
    </vehicle>
    <vehicle id="22" type="passenger" depart="60.50">
        <route edges="520307306 913009311 1126339777#0 1126339777#1 -420331831 -601902513#1 -381447836#3 -381447836#2 -381447836#0 117914351#2"/>
    </vehicle>
    <vehicle id="23" type="passenger" depart="63.25">
        <route edges="-381447836#2 381447834#0 -117914348#0 -601902513#1 -601902513#0 -420331825#3"/>
    </vehicle>
    <vehicle id="24" type="passenger" depart="66.00">
        <route edges="-913009312#5 381447829#0 117914348#0 117914348#1 117914348#2 -381447818"/>
    </vehicle>
    <vehicle id="25" type="passenger" depart="68.75">
        <route edges="381452174#0 420319840#0 420319840#1 -381452104#1 -381452104#0 -117914343#0 913009312#4 -420331825#4 -420331825#3 -420331825#2 -381447817#0 381447834#0"/>
    </vehicle>
    <vehicle id="26" type="passenger" depart="71.50">
        <route edges="913009312#9 381447835#0 381447835#1 381447835#2 381447835#3 -913009312#5 -913009312#4 117914343#0 381452104#0 381452174#0 420319840#0 420319840#1"/>
    </vehicle>
    <vehicle id="27" type="passenger" depart="74.25">
        <route edges="913009312#1 913009312#2 913009312#3 913009312#4 913009312#5 913009312#6 913009312#7 913009312#8 913009312#9 218773868#1 218773868#2 -420331827 381447833#1"/>
    </vehicle>
    <vehicle id="28" type="passenger" depart="77.00">
        <route edges="117914351#0 381447836#0 381447834#0 117914348#1"/>
    </vehicle>
    <vehicle id="29" type="passenger" depart="79.75">
        <route edges="420319840#0 420319840#1 -381452104#1 -381452104#0 -117914343#0 913009312#4 -420331825#4 601902513#0 601902513#1"/>
    </vehicle>
    <vehicle id="30" type="passenger" depart="82.50">
        <route edges="420319847 381452175#2 -381452122#3 -913009312#8 -913009312#7 -913009312#6 -913009312#5 -381452132 420319848#0"/>
    </vehicle>
    <vehicle id="31" type="passenger" depart="85.25">
        <route edges="-117914343#2 -117914343#1 -117914343#0 -913009312#3 -913009312#2 -913009312#1"/>
    </vehicle>
    <vehicle id="32" type="passenger" depart="88.00">
        <route edges="-218773868#1 381447835#0 381447835#1 381447835#2 381447835#3 913009312#6 913009312#7 913009312#8 913009312#9 218773868#1 218773868#2 218773868#3"/>
    </vehicle>
    <vehicle id="33" type="passenger" depart="90.75">
        <route edges="244215552#0 -420317543#1 -420317543#0 117914352#0"/>
    </vehicle>
    <vehicle id="34" type="passenger" depart="93.50">
        <route edges="420331825#1 420331825#2 420331825#3 420331825#4 -381452132"/>
    </vehicle>
    <vehicle id="35" type="passenger" depart="96.25">
        <route edges="381452110 -420319848#0 381452132 913009312#5 913009312#6 913009312#7 913009312#8 913009312#9 218773868#1 218773868#2 218773868#3"/>
    </vehicle>
    <vehicle id="36" type="passenger" depart="99.00">
        <route edges="-381452108#0 -117914343#1 -117914343#0 913009312#4 913009312#5 913009312#6 913009312#7"/>
    </vehicle>
    <vehicle id="37" type="passenger" depart="101.75">
        <route edges="-117914348#3 -117914348#2 -117914348#1 -381447834#0 381447817#0 381447817#1 -218773868#3 -218773868#2 -218773868#1 -218773868#0 -913009312#8"/>
    </vehicle>
    <vehicle id="38" type="passenger" depart="104.50">
        <route edges="117914351#0 117914351#2 420331825#1 381447817#1 218773868#4"/>
    </vehicle>
    <vehicle id="39" type="passenger" depart="107.25">
        <route edges="913009312#9 218773868#1 218773868#2 218773868#3 -381447817#1 -381447817#0 -381447836#0 117914351#2"/>
    </vehicle>
    <vehicle id="40" type="passenger" depart="110.00">
        <route edges="420331827 -218773868#2 -218773868#1 -218773868#0 -913009312#8 -913009312#7 -913009312#6 -913009312#5 -913009312#4 117914343#0 381452104#0 381452104#1 -420319840#1 -420319840#0 -381452167 -117914352#0 420317543#0 -420317544#0"/>
    </vehicle>
    <vehicle id="41" type="passenger" depart="112.75">
        <route edges="1126339777#0 1126339777#1 -420331831 -601902513#1 -601902513#0 -381447833#1"/>
    </vehicle>
    <vehicle id="42" type="passenger" depart="115.50">
        <route edges="381447833#1 420331825#4 -913009312#4 -913009312#3 -913009312#2 -913009312#1"/>
    </vehicle>
    <vehicle id="43" type="passenger" depart="118.25">
        <route edges="381452175#2 -381452122#3 913009312#9 218773868#1 218773868#2 218773868#3 -381447817#1"/>
    </vehicle>
    <vehicle id="44" type="passenger" depart="121.00">
        <route edges="-913009312#7 -913009312#6 -913009312#5 -381452132 -117914343#2 -117914343#1 -117914343#0 913009312#4"/>
    </vehicle>
    <vehicle id="45" type="passenger" depart="123.75">
        <route edges="-1126339777#1 -1126339777#0 913009312#1 913009312#2 913009312#3 913009312#4 381447829#0 117914348#0 381447834#1"/>
    </vehicle>
    <vehicle id="46" type="passenger" depart="126.50">
        <route edges="381447835#3 -913009312#5 -913009312#4 117914343#0 381452104#0 381452104#1 381452104#2"/>
    </vehicle>
    <vehicle id="47" type="passenger" depart="129.25">
        <route edges="117914352#1 420317543#1 244215552#1 520307306 913009311 913009312#1 913009312#2 913009312#3 117914343#0"/>
    </vehicle>
    <vehicle id="48" type="passenger" depart="132.00">
        <route edges="913009312#5 913009312#6 913009312#7 913009312#8 381452122#3 -381452175#2 -381452175#1 -381452175#0 -420319848#1 -420319848#0 -117914343#2 -117914343#1 381452104#0 381452104#1 -420319840#1 -420319840#0 -381452167 117914352#1 -420317543#0"/>
    </vehicle>
    <vehicle id="49" type="passenger" depart="134.75">
        <route edges="381452104#0 381452104#1 -420319840#1 -420319840#0 -381452174#0 -381452104#0 -117914343#0 913009312#4 913009312#5 913009312#6 913009312#7 913009312#8 913009312#9 381447835#0"/>
    </vehicle>
    <vehicle id="50" type="passenger" depart="137.50">
        <route edges="381452110 -420319848#0 -117914343#2 -117914343#1 -117914343#0 -913009312#3 -913009312#2 -913009312#1 -913009311 -520307306 -913009315"/>
    </vehicle>
    <vehicle id="51" type="passenger" depart="140.25">
        <route edges="-117914343#0 913009312#4 -381452132 -117914343#2 -117914343#1 381452104#0 381452174#0 381452174#1"/>
    </vehicle>
    <vehicle id="52" type="passenger" depart="143.00">
        <route edges="-381452175#2 -381452175#1 -381452175#0 -420319848#1 -420319848#0 -117914343#2 -117914343#1 -117914343#0 913009312#4 -381452132 420319848#0 420319848#1 381452175#0"/>
    </vehicle>
    <vehicle id="53" type="passenger" depart="145.75">
        <route edges="913009313#1 913009311 913009312#1 913009312#2 913009312#3 117914343#0 381452104#0 381452174#0 381452174#1"/>
    </vehicle>
    <vehicle id="54" type="passenger" depart="148.50">
        <route edges="-601902513#0 -420331825#3 -420331830 -381447836#2 -381447836#0 117914351#2 420331825#1"/>
    </vehicle>
    <vehicle id="55" type="passenger" depart="151.25">
        <route edges="-420331831 -381447829#0 913009312#5 913009312#6 913009312#7 913009312#8 381452122#3 -381452175#2 -420319847"/>
    </vehicle>
    <vehicle id="56" type="passenger" depart="154.00">
        <route edges="218773868#2 218773868#3 -381447817#1 -381447817#0 381447834#0"/>
    </vehicle>
    <vehicle id="57" type="passenger" depart="156.75">
        <route edges="381447836#2 381447836#3 601902513#1 117914348#0 117914348#1 117914351#0 117914351#2"/>
    </vehicle>
    <vehicle id="58" type="passenger" depart="159.50">
        <route edges="-601902513#1 -601902513#0 420331825#4 913009312#5 913009312#6 913009312#7 913009312#8 381452122#3"/>
    </vehicle>
    <vehicle id="59" type="passenger" depart="162.25">
        <route edges="-420319848#0 -117914343#2 -117914343#1 381452104#0 381452104#1 -420319840#1 -420319840#0 -381452167 117914352#1 420317543#1 244215552#1"/>
    </vehicle>
    <vehicle id="60" type="passenger" depart="165.00">
        <route edges="-1126339777#0 913009312#1 913009312#2 913009312#3 913009312#4 -420331825#4 601902513#0 601902513#1 -381447829#0"/>
    </vehicle>
    <vehicle id="61" type="passenger" depart="167.75">
        <route edges="420331825#2 420331825#3 420331825#4 -381452132 420319848#0 420319848#1 381452175#0 381452175#1 381452175#2 -381452122#3"/>
    </vehicle>
    <vehicle id="62" type="passenger" depart="170.50">
        <route edges="-601902513#1 -381447836#3 -381447836#2 -381447836#0 -117914351#0"/>
    </vehicle>
    <vehicle id="63" type="passenger" depart="173.25">
        <route edges="381452174#1 420319840#1 -381452104#1 -381452104#0 -117914343#0 913009312#4 913009312#5 913009312#6 913009312#7 913009312#8 381452122#3 -381452175#2 -381452175#1 -381452175#0 -420319848#1 -420319848#0"/>
    </vehicle>
    <vehicle id="64" type="passenger" depart="176.00">
        <route edges="-117914348#2 -117914348#1 -117914348#0 -381447829#0 -913009312#4 117914343#0 381452104#0 381452104#1 -420319840#1 -420319840#0 -381452167 -117914352#0 -420317540"/>
    </vehicle>
    <vehicle id="65" type="passenger" depart="178.74">
        <route edges="913009312#1 913009312#2 913009312#3 913009312#4 913009312#5 913009312#6 913009312#7 913009312#8 381452122#3 -381452175#2 -381452175#1 381452160"/>
    </vehicle>
    <vehicle id="66" type="passenger" depart="181.49">
        <route edges="-1126339777#0 913009312#1 913009312#2 913009312#3"/>
    </vehicle>
    <vehicle id="67" type="passenger" depart="184.24">
        <route edges="-117914351#2 -117914351#0 -117914348#1 -117914348#0 -381447829#0 -913009312#4 -913009312#3 -913009312#2 -913009312#1 1126339777#0"/>
    </vehicle>
    <vehicle id="68" type="passenger" depart="186.99">
        <route edges="117914351#0 117914351#2 420331825#1 420331825#2 420331825#3 420331825#4 -381452132 420319848#0 420319848#1 381452175#0"/>
    </vehicle>
    <vehicle id="69" type="passenger" depart="189.74">
        <route edges="-381447829#0 -913009312#4 117914343#0 381452104#0 381452174#0 420319840#0"/>
    </vehicle>
    <vehicle id="70" type="passenger" depart="192.49">
        <route edges="-381452175#1 -381452175#0 -420319848#1 -420319848#0 -117914343#2 381452108#0 381452108#1"/>
    </vehicle>
    <vehicle id="71" type="passenger" depart="195.24">
        <route edges="913009311 913009312#1 913009312#2 913009312#3 913009312#4 913009312#5 913009312#6 913009312#7 913009312#8 913009312#9 218773868#1 218773868#2 218773868#3 218773868#4"/>
    </vehicle>
    <vehicle id="72" type="passenger" depart="197.99">
        <route edges="-1126339777#0 913009312#1 913009312#2 913009312#3 913009312#4 913009312#5 913009312#6 913009312#7 913009312#8 913009312#9 381447835#0"/>
    </vehicle>
    <vehicle id="73" type="passenger" depart="200.74">
        <route edges="-913009312#3 -913009312#2 -913009312#1 1126339777#0 1126339777#1 -420331831 -381447829#0 -913009312#4 117914343#0 117914343#1 381452108#0"/>
    </vehicle>
    <vehicle id="74" type="passenger" depart="203.49">
        <route edges="381452175#2 -381452122#3 913009312#9 218773868#1 218773868#2 218773868#3 -381447817#1"/>
    </vehicle>
    <vehicle id="75" type="passenger" depart="206.24">
        <route edges="218773868#2 -420331827 381447833#1"/>
    </vehicle>
    <vehicle id="76" type="passenger" depart="208.99">
        <route edges="913009311 1126339777#0 1126339777#1 -420331831 -601902513#1 -381447836#3 -381447836#2 381447817#0"/>
    </vehicle>
    <vehicle id="77" type="passenger" depart="211.74">
        <route edges="381447827 913009313#1 913009311 913009312#1 913009312#2 913009312#3 117914343#0 381452104#0 381452174#0"/>
    </vehicle>
    <vehicle id="78" type="passenger" depart="214.49">
        <route edges="-381447834#0 -381447836#0 117914351#2 420331825#1"/>
    </vehicle>
    <vehicle id="79" type="passenger" depart="217.24">
        <route edges="244215552#0 244215552#1 520307306 913009311 913009312#1 913009312#2 913009312#3 913009312#4 913009312#5 913009312#6 913009312#7 913009312#8 913009312#9 218773868#1 381447833#0"/>
    </vehicle>
    <vehicle id="80" type="passenger" depart="219.99">
        <route edges="-381447833#1 420331827 218773868#3 -381447817#1 -381447817#0 381447834#0 117914348#1"/>
    </vehicle>
    <vehicle id="81" type="passenger" depart="222.74">
        <route edges="-601902513#1 -601902513#0 420331825#4 -381452132 420319848#0 -381452110"/>
    </vehicle>
    <vehicle id="82" type="passenger" depart="225.49">
        <route edges="913009312#3 117914343#0 117914343#1 117914343#2 420319848#0 420319848#1"/>
    </vehicle>
    <vehicle id="83" type="passenger" depart="228.24">
        <route edges="-913009312#6 -913009312#5 -420331825#4 -381447833#1 420331827 -218773868#2 -218773868#1 -218773868#0"/>
    </vehicle>
    <vehicle id="84" type="passenger" depart="230.99">
        <route edges="913009312#9 218773868#1 218773868#2 218773868#3 -381447817#1 -381447817#0 381447834#0 117914348#1 117914348#2 -381447818"/>
    </vehicle>
    <vehicle id="85" type="passenger" depart="233.74">
        <route edges="117914343#2 381452132 -913009312#4 117914343#0 381452104#0 381452104#1 -420319840#1 -420319840#0 -381452167 117914352#1"/>
    </vehicle>
    <vehicle id="86" type="passenger" depart="236.49">
        <route edges="420331825#1 -381447817#0 381447834#0 381447834#1"/>
    </vehicle>
    <vehicle id="87" type="passenger" depart="239.24">
        <route edges="381447817#1 -218773868#3 -218773868#2 -218773868#1 -218773868#0 -913009312#8 -913009312#7 -913009312#6 -913009312#5 -913009312#4 117914343#0 117914343#1 117914343#2"/>
    </vehicle>
    <vehicle id="88" type="passenger" depart="241.99">
        <route edges="913009312#8 381452122#3 -381452175#2 -381452175#1 -381452175#0 -420319848#1 -420319848#0 -117914343#2 -117914343#1 381452104#0 381452104#1 -420319840#1 -420319840#0 -381452167 117914352#1 420317544#1"/>
    </vehicle>
    <vehicle id="89" type="passenger" depart="244.74">
        <route edges="-420331825#3 -420331830 381447836#3 -601902513#0 420331825#4 -381452132 420319848#0 420319848#1 381452175#0 381452175#1 381452175#2"/>
    </vehicle>
    <vehicle id="90" type="passenger" depart="247.49">
        <route edges="913009312#4 -381452132 -117914343#2 -117914343#1 -117914343#0 -913009312#3 -913009312#2 -913009312#1 1126339777#0"/>
    </vehicle>
    <vehicle id="91" type="passenger" depart="250.24">
        <route edges="-218773868#0 -913009312#8 -913009312#7 -913009312#6 -913009312#5 -913009312#4 117914343#0 381452104#0 381452104#1 -420319840#1 -420319840#0 -381452167 -117914352#0"/>
    </vehicle>
    <vehicle id="92" type="passenger" depart="252.99">
        <route edges="913009312#7 913009312#8 381452122#3 -381452175#2 -381452175#1 -381452175#0 -420319848#1 -381452110"/>
    </vehicle>
    <vehicle id="93" type="passenger" depart="255.74">
        <route edges="420317543#1 244215552#1 520307306 913009311 913009312#1 913009312#2 913009312#3 117914343#0 117914343#1 381452108#0 -381452106"/>
    </vehicle>
    <vehicle id="94" type="passenger" depart="258.49">
        <route edges="-381452122#3 -913009312#8 -913009312#7 -913009312#6 -913009312#5 -420331825#4 -420331825#3 -420331830 -381447836#2 -381447836#0"/>
    </vehicle>
    <vehicle id="95" type="passenger" depart="261.24">
        <route edges="420319840#0 420319840#1 -381452104#1 -381452104#0 -117914343#0 913009312#4 -420331825#4 -381447833#1 420331827 -218773868#2"/>
    </vehicle>
    <vehicle id="96" type="passenger" depart="263.99">
        <route edges="-913009312#8 -913009312#7 -913009312#6 -913009312#5 -913009312#4 117914343#0 381452104#0 381452104#1 -420319840#1 -420319840#0 -381452167 117914352#1 420317543#1"/>
    </vehicle>
    <vehicle id="97" type="passenger" depart="266.74">
        <route edges="117914348#2 -381447818 -117914351#0 -117914348#1 -117914348#0 420331831 -1126339777#1"/>
    </vehicle>
    <vehicle id="98" type="passenger" depart="269.49">
        <route edges="-117914343#0 913009312#4 -381452132 -117914343#2 -117914343#1 381452104#0 381452174#0 420319840#0 420319840#1"/>
    </vehicle>
    <vehicle id="99" type="passenger" depart="272.24">
        <route edges="-420317544#0 381452167 420319840#0 420319840#1 -381452104#1 -381452104#0 -117914343#0 913009312#4 -420331825#4 -381447833#1 420331827 -218773868#2 -218773868#1"/>
    </vehicle>
    <vehicle id="100" type="passenger" depart="274.99">
        <route edges="117914348#1 117914351#0 117914351#2 420331825#1 420331825#2 420331825#3 420331825#4 -381452132 420319848#0 420319848#1 381452175#0"/>
    </vehicle>
    <vehicle id="101" type="passenger" depart="277.74">
        <route edges="-420317544#1 420317543#1 244215552#1 520307306 913009311 913009312#1 913009312#2 913009312#3 913009312#4 913009312#5 913009312#6 913009312#7 913009312#8 913009312#9 218773868#1 218773868#2 218773868#3 -381447831"/>
    </vehicle>
    <vehicle id="102" type="passenger" depart="280.49">
        <route edges="-381447836#3 420331830 420331825#3 420331825#4 -913009312#4 -913009312#3 -913009312#2 -913009312#1 -913009311 -913009313#1"/>
    </vehicle>
    <vehicle id="103" type="passenger" depart="283.24">
        <route edges="381452175#1 381452175#2 -381452122#3 913009312#9 218773868#1 381447833#0 420331827 -218773868#2 -218773868#1"/>
    </vehicle>
    <vehicle id="104" type="passenger" depart="285.99">
        <route edges="381452174#0 420319840#0 420319840#1 -381452104#1 -381452104#0 -117914343#0 913009312#4 913009312#5 913009312#6 913009312#7 913009312#8 913009312#9 381447835#0 381447835#1 381447835#2"/>
    </vehicle>
    <vehicle id="105" type="passenger" depart="288.74">
        <route edges="117914352#1 420317543#1 244215552#1 520307306 913009311 913009312#1 913009312#2 913009312#3 913009312#4 -420331825#4 -420331825#3 -420331830"/>
    </vehicle>
    <vehicle id="106" type="passenger" depart="291.49">
        <route edges="-117914343#2 -117914343#1 381452104#0 381452104#1 -420319840#1 -420319840#0 -381452174#0 -381452104#0 117914343#1"/>
    </vehicle>
    <vehicle id="107" type="passenger" depart="294.24">
        <route edges="-601902513#1 -601902513#0 420331825#4 913009312#5 913009312#6 913009312#7 913009312#8 913009312#9 381447835#0 381447835#1 381447835#2"/>
    </vehicle>
    <vehicle id="108" type="passenger" depart="296.99">
        <route edges="-117914351#0 -117914348#1 -117914348#0 -601902513#1 -381447836#3 -381447836#2"/>
    </vehicle>
    <vehicle id="109" type="passenger" depart="299.74">
        <route edges="-117914343#0 -913009312#3 -913009312#2 -913009312#1 1126339777#0"/>
    </vehicle>
    <vehicle id="110" type="passenger" depart="302.49">
        <route edges="-117914351#0 117914348#2"/>
    </vehicle>
    <vehicle id="111" type="passenger" depart="305.24">
        <route edges="-913009312#3 -913009312#2 -913009312#1 1126339777#0 1126339777#1 -420331831 -381447829#0 913009312#5 913009312#6 913009312#7 913009312#8 381452122#3 -381452175#2 -381452175#1 -381452175#0 -420319848#1 -420319848#0"/>
    </vehicle>
    <vehicle id="112" type="passenger" depart="307.99">
        <route edges="-381447836#3 420331830 420331825#3 601902513#0 601902513#1"/>
    </vehicle>
    <vehicle id="113" type="passenger" depart="310.74">
        <route edges="1126339777#0 1126339777#1 -420331831 -601902513#1 -601902513#0 -420331825#3 -420331825#2 -381447817#0"/>
    </vehicle>
    <vehicle id="114" type="passenger" depart="313.49">
        <route edges="218773868#3 -381447817#1 420331825#2 420331825#3 420331825#4 -913009312#4 117914343#0 381452104#0 381452104#1 -420319840#1 -420319840#0 -381452167 -117914352#0 420317543#0 -420317544#0 381452167"/>
    </vehicle>
    <vehicle id="115" type="passenger" depart="316.24">
        <route edges="1126339777#1 -420331831 -601902513#1 -381447836#3 420331830"/>
    </vehicle>
    <vehicle id="116" type="passenger" depart="318.99">
        <route edges="420319848#0 420319848#1 381452175#0 381452175#1 381452175#2 -381452122#3 913009312#9 381447835#0 381447835#1 381447835#2"/>
    </vehicle>
    <vehicle id="117" type="passenger" depart="321.74">
        <route edges="-117914343#1 -117914343#0 913009312#4 381447829#0 -601902513#1 -601902513#0"/>
    </vehicle>
    <vehicle id="118" type="passenger" depart="324.49">
        <route edges="117914343#2 381452132 -420331825#4 -420331825#3 -420331830 -381447836#2"/>
    </vehicle>
    <vehicle id="119" type="passenger" depart="327.24">
        <route edges="117914343#0 117914343#1 117914343#2 381452132 913009312#5 913009312#6 913009312#7 913009312#8 913009312#9 381447835#0"/>
    </vehicle>
    <vehicle id="120" type="passenger" depart="329.99">
        <route edges="381452172 420319848#0 420319848#1 381452175#0 381452160"/>
    </vehicle>
    <vehicle id="121" type="passenger" depart="332.74">
        <route edges="381452167 381452174#1 -420319840#0"/>
    </vehicle>
    <vehicle id="122" type="passenger" depart="335.49">
        <route edges="381447827 913009313#1 913009311 913009312#1 913009312#2 913009312#3 117914343#0"/>
    </vehicle>
    <vehicle id="123" type="passenger" depart="338.24">
        <route edges="381452174#0 420319840#0 420319840#1 -381452104#1 -381452104#0 -117914343#0 -913009312#3 -913009312#2 -913009312#1 -913009311 -913009313#1 -381447827"/>
    </vehicle>
    <vehicle id="124" type="passenger" depart="340.99">
        <route edges="-381447836#0 -117914351#0 -117914348#1 -117914348#0 -381447829#0 -913009312#4 117914343#0 381452104#0 381452104#1"/>
    </vehicle>
    <vehicle id="125" type="passenger" depart="343.74">
        <route edges="381452110 -420319848#0 -117914343#2 -117914343#1 381452104#0 381452104#1 -420319840#1 -420319840#0 -381452167"/>
    </vehicle>
    <vehicle id="126" type="passenger" depart="346.49">
        <route edges="381452174#1"/>
    </vehicle>
    <vehicle id="127" type="passenger" depart="349.24">
        <route edges="381447834#0 -117914348#0 -601902513#1 -601902513#0 -381447833#1 420331827 -218773868#2 -218773868#1 -218773868#0 -913009312#8 -913009312#7"/>
    </vehicle>
    <vehicle id="128" type="passenger" depart="351.99">
        <route edges="-117914348#3 -117914348#2 -117914348#1 -117914348#0 -381447829#0 -913009312#4 117914343#0 381452104#0 381452104#1 -420319840#1 -420319840#0 -381452167"/>
    </vehicle>
    <vehicle id="129" type="passenger" depart="354.74">
        <route edges="381452174#1 -420319840#0 -381452167 117914352#1 420317543#1 244215552#1 520307306 913009311"/>
    </vehicle>
    <vehicle id="130" type="passenger" depart="357.49">
        <route edges="-381447834#1 -117914348#0"/>
    </vehicle>
    <vehicle id="131" type="passenger" depart="360.24">
        <route edges="-420331825#2 -381447817#0 381447836#2 381447836#3 601902513#1 420331831 -1126339777#1 -1126339777#0 913009312#1"/>
    </vehicle>
    <vehicle id="132" type="passenger" depart="362.99">
        <route edges="-381452108#0 -117914343#1 -117914343#0 913009312#4 381447829#0 420331831 -1126339777#1 -1126339777#0 913009312#1"/>
    </vehicle>
    <vehicle id="133" type="passenger" depart="365.74">
        <route edges="381452175#2 -381452122#3 -913009312#8 -913009312#7 -913009312#6 -913009312#5 -381452132 420319848#0"/>
    </vehicle>
    <vehicle id="134" type="passenger" depart="368.49">
        <route edges="913009313#1 913009311 913009312#1 913009312#2 913009312#3 913009312#4 913009312#5 913009312#6 913009312#7 913009312#8 913009312#9 381447835#0 381447835#1 381447835#2"/>
    </vehicle>
    <vehicle id="135" type="passenger" depart="371.24">
        <route edges="-381452104#1 -381452104#0 -117914343#0 -913009312#3"/>
    </vehicle>