<?xml version="1.0" encoding="UTF-8"?>

<!-- generated on 2026-04-15 00:23:12.977600 by Eclipse SUMO randomTrips.py v1.26.0
<configuration>
    <net-file value="/Users/junlee/Desktop/2026-1/js/result/2026-04-15_00-06-49/sumo_nets/cw_6122/network.net.xml"/>
    <output-trip-file value="/Users/junlee/Desktop/2026-1/js/result/2026-04-15_00-06-49/sumo_nets/cw_6122/routes_seed42.trips.xml"/>
    <route-file value="/Users/junlee/Desktop/2026-1/js/result/2026-04-15_00-06-49/sumo_nets/cw_6122/routes_seed42.rou.xml"/>
    <vehicle-class value="passenger"/>
    <end value="1800.0"/>
    <period value="5.899086348664728"/>
</configuration>
-->

<routes xmlns:xsi="http://www.w3.org/2001/XMLSchema-instance" xsi:noNamespaceSchemaLocation="http://sumo.dlr.de/xsd/routes_file.xsd">
    <vType id="passenger" vClass="passenger"/>
    <trip id="0" depart="0.00" from="218915135#1" to="-301285279#0" type="passenger"/>
    <trip id="1" depart="5.90" from="-315658899#1" to="315658896#3" type="passenger"/>
    <trip id="2" depart="11.80" from="-243542153#3" to="-315658899#1" type="passenger"/>
    <trip id="3" depart="17.70" from="315658899#1" to="315658897#0" type="passenger"/>
    <trip id="4" depart="23.60" from="-315658899#1" to="315658897#4" type="passenger"/>
    <trip id="5" depart="29.50" from="619147739#3" to="-243542153#1" type="passenger"/>
    <trip id="6" depart="35.39" from="619147739#2" to="333557072#1" type="passenger"/>
    <trip id="7" depart="41.29" from="-464459667" to="-315658897#3" type="passenger"/>
    <trip id="8" depart="47.19" from="913405361" to="-788296725" type="passenger"/>
    <trip id="9" depart="53.09" from="-315658896#2" to="-315658896#3" type="passenger"/>
    <trip id="10" depart="58.99" from="619147739#3" to="333972428#2" type="passenger"/>
    <trip id="11" depart="64.89" from="315658896#2" to="955312947#0" type="passenger"/>
    <trip id="12" depart="70.79" from="-955312947#0" to="315658897#1" type="passenger"/>
    <trip id="13" depart="76.69" from="781983103#1" to="315658897#3" type="passenger"/>
    <trip id="14" depart="82.59" from="-315658884#2" to="-315658900#2" type="passenger"/>
    <trip id="15" depart="88.49" from="315658899#0" to="-955312948" type="passenger"/>
    <trip id="16" depart="94.39" from="315658899#1" to="315658899#0" type="passenger"/>
    <trip id="17" depart="100.28" from="-315658897#2" to="333972428#2" type="passenger"/>
    <trip id="18" depart="106.18" from="955312947#1" to="315658900#1" type="passenger"/>
    <trip id="19" depart="112.08" from="315658896#4" to="318747848#3" type="passenger"/>
    <trip id="20" depart="117.98" from="-333972428#2" to="-333972428#0" type="passenger"/>
    <trip id="21" depart="123.88" from="781983103#2" to="-464459667" type="passenger"/>
    <trip id="22" depart="129.78" from="78628775#0" to="301285279#2" type="passenger"/>
    <trip id="23" depart="135.68" from="-315658900#3" to="-318747848#2" type="passenger"/>
    <trip id="24" depart="141.58" from="315658896#5" to="-318747848#3" type="passenger"/>
    <trip id="25" depart="147.48" from="315658897#1" to="781983104#1" type="passenger"/>
    <trip id="26" depart="153.38" from="-955312948" to="-315658900#1" type="passenger"/>
    <trip id="27" depart="159.28" from="955312948" to="315658896#3" type="passenger"/>
    <trip id="28" depart="165.17" from="-315658896#3" to="315658900#0" type="passenger"/>
    <trip id="29" depart="171.07" from="619147739#1" to="243542153#3" type="passenger"/>
    <trip id="30" depart="176.97" from="955312948" to="315658896#5" type="passenger"/>
    <trip id="31" depart="182.87" from="955312947#0" to="781983103#1" type="passenger"/>
    <trip id="32" depart="188.77" from="-243542153#2" to="333972428#1" type="passenger"/>
    <trip id="33" depart="194.67" from="315658900#2" to="315658896#6" type="passenger"/>
    <trip id="34" depart="200.57" from="-315658896#3" to="301285279#0" type="passenger"/>
    <trip id="35" depart="206.47" from="243542153#1" to="913406478" type="passenger"/>
    <trip id="36" depart="212.37" from="781983103#2" to="-318747848#3" type="passenger"/>
    <trip id="37" depart="218.27" from="315658884#1" to="-315658897#5" type="passenger"/>
    <trip id="38" depart="224.17" from="78628775#0" to="781983103#2" type="passenger"/>
    <trip id="39" depart="230.06" from="-333972428#1" to="315658900#1" type="passenger"/>
    <trip id="40" depart="235.96" from="315658897#3" to="-315658897#2" type="passenger"/>
    <trip id="41" depart="241.86" from="382947009" to="315658896#6" type="passenger"/>
    <trip id="42" depart="247.76" from="619147739#0" to="315658896#5" type="passenger"/>
    <trip id="43" depart="253.66" from="-243542153#2" to="788296725" type="passenger"/>
    <trip id="44" depart="259.56" from="781983104#0" to="777881145" type="passenger"/>
    <trip id="45" depart="265.46" from="-333972428#2" to="-315658884#1" type="passenger"/>
    <trip id="46" depart="271.36" from="-315658896#1" to="315658896#1" type="passenger"/>
    <trip id="47" depart="277.26" from="-315658884#1" to="382947009" type="passenger"/>
    <trip id="48" depart="283.16" from="464459667" to="-315658897#0" type="passenger"/>
    <trip id="49" depart="289.06" from="301285279#0" to="315658897#0" type="passenger"/>
    <trip id="50" depart="294.95" from="-315658900#3" to="781983103#2" type="passenger"/>
    <trip id="51" depart="300.85" from="218915135#1" to="-315658900#0" type="passenger"/>
    <trip id="52" depart="306.75" from="315658896#2" to="333972428#2" type="passenger"/>
    <trip id="53" depart="312.65" from="-315658897#5" to="-464459667" type="passenger"/>
    <trip id="54" depart="318.55" from="955312948" to="315658900#2" type="passenger"/>
    <trip id="55" depart="324.45" from="218915135#1-AddedOffRampEdge" to="315658896#4" type="passenger"/>
    <trip id="56" depart="330.35" from="-315658896#4" to="-315658900#2" type="passenger"/>
    <trip id="57" depart="336.25" from="-464459667" to="315658897#4" type="passenger"/>
    <trip id="58" depart="342.15" from="-315658900#0" to="-315658900#1" type="passenger"/>
    <trip id="59" depart="348.05" from="-315658884#1" to="315658900#0" type="passenger"/>
    <trip id="60" depart="353.95" from="781983103#1" to="-315658884#2" type="passenger"/>
    <trip id="61" depart="359.84" from="-315658899#0" to="-315658897#0" type="passenger"/>
    <trip id="62" depart="365.74" from="301285279#0" to="581906883" type="passenger"/>
    <trip id="63" depart="371.64" from="619147739#3" to="-315658899#0" type="passenger"/>
    <trip id="64" depart="377.54" from="-315658896#2" to="301285279#0" type="passenger"/>
    <trip id="65" depart="383.44" from="218915135#1" to="315658884#1" type="passenger"/>
    <trip id="66" depart="389.34" from="955312947#1" to="-315658896#3" type="passenger"/>
    <trip id="67" depart="395.24" from="-955312948" to="-955312947#0" type="passenger"/>
    <trip id="68" depart="401.14" from="781983103#1" to="-318747848#2" type="passenger"/>
    <trip id="69" depart="407.04" from="-315658897#4" to="301285279#1" type="passenger"/>
    <trip id="70" depart="412.94" from="-315658900#2" to="788296724#0" type="passenger"/>
    <trip id="71" depart="418.84" from="218915135#2" to="781983103#1" type="passenger"/>
    <trip id="72" depart="424.73" from="955312948" to="777881145" type="passenger"/>
    <trip id="73" depart="430.63" from="913406478" to="788296724#0" type="passenger"/>
    <trip id="74" depart="436.53" from="301285279#1" to="-315658900#0" type="passenger"/>
    <trip id="75" depart="442.43" from="-955312948" to="-315658884#1" type="passenger"/>
    <trip id="76" depart="448.33" from="-955312947#0" to="955312947#1" type="passenger"/>
    <trip id="77" depart="454.23" from="-315658900#3" to="581906883" type="passenger"/>
    <trip id="78" depart="460.13" from="243542153#1" to="243542153#3" type="passenger"/>
    <trip id="79" depart="466.03" from="315658896#4" to="333972428#1" type="passenger"/>
    <trip id="80" depart="471.93" from="913406478" to="315658897#3" type="passenger"/>
    <trip id="81" depart="477.83" from="315658896#3" to="379943755#1" type="passenger"/>
    <trip id="82" depart="483.73" from="315658884#1" to="777881147#3" type="passenger"/>
    <trip id="83" depart="489.62" from="-315658897#1" to="921117704" type="passenger"/>
    <trip id="84" depart="495.52" from="-315658884#2" to="-315658899#0" type="passenger"/>
    <trip id="85" depart="501.42" from="315658897#2" to="318747848#2" type="passenger"/>
    <trip id="86" depart="507.32" from="-315658900#1" to="-315658896#5" type="passenger"/>
    <trip id="87" depart="513.22" from="315658897#2" to="315658899#1" type="passenger"/>
    <trip id="88" depart="519.12" from="218915135#1" to="315658897#4" type="passenger"/>
    <trip id="89" depart="525.02" from="315658896#1" to="788296725" type="passenger"/>
    <trip id="90" depart="530.92" from="-315658899#0" to="333972428#1" type="passenger"/>
    <trip id="91" depart="536.82" from="-333972428#2" to="379943755#1" type="passenger"/>
    <trip id="92" depart="542.72" from="-315658884#2" to="301285279#2" type="passenger"/>
    <trip id="93" depart="548.62" from="955312948" to="955312948" type="passenger"/>
    <trip id="94" depart="554.51" from="-315658884#2" to="-315658900#0" type="passenger"/>
    <trip id="95" depart="560.41" from="-315658900#3" to="788296725" type="passenger"/>
    <trip id="96" depart="566.31" from="781983104#0" to="781983104#0" type="passenger"/>
    <trip id="97" depart="572.21" from="315658897#3" to="955312947#1" type="passenger"/>
    <trip id="98" depart="578.11" from="315658900#0" to="-243542153#1" type="passenger"/>
    <trip id="99" depart="584.01" from="-315658896#6" to="-315658896#5" type="passenger"/>
    <trip id="100" depart="589.91" from="-315658896#3" to="315658897#1" type="passenger"/>
    <trip id="101" depart="595.81" from="315658899#0" to="-318747848#3" type="passenger"/>
    <trip id="102" depart="601.71" from="-243542153#1" to="464459667" type="passenger"/>
    <trip id="103" depart="607.61" from="315658899#0" to="-318747848#3" type="passenger"/>
    <trip id="104" depart="613.50" from="218915135#1" to="-243542153#1" type="passenger"/>
    <trip id="105" depart="619.40" from="-315658884#2" to="781983104#0" type="passenger"/>
    <trip id="106" depart="625.30" from="78628770#1" to="315658897#0" type="passenger"/>
    <trip id="107" depart="631.20" from="-315658897#0" to="-315658897#0" type="passenger"/>
    <trip id="108" depart="637.10" from="619147739#2" to="781983103#1" type="passenger"/>
    <trip id="109" depart="643.00" from="78628770#1" to="-315658900#0" type="passenger"/>
    <trip id="110" depart="648.90" from="-315658900#2" to="-315658896#4" type="passenger"/>
    <trip id="111" depart="654.80" from="619147739#0" to="781983104#0" type="passenger"/>
    <trip id="112" depart="660.70" from="-955312948" to="315658899#1" type="passenger"/>
    <trip id="113" depart="666.60" from="-315658897#1" to="788296725" type="passenger"/>
    <trip id="114" depart="672.50" from="781983103#1" to="955312947#0" type="passenger"/>
    <trip id="115" depart="678.39" from="619147739#3" to="781983104#0" type="passenger"/>
    <trip id="116" depart="684.29" from="-243542153#3" to="333972428#3" type="passenger"/>
    <trip id="117" depart="690.19" from="619147739#2" to="781983103#1" type="passenger"/>
    <trip id="118" depart="696.09" from="619147739#3" to="-333972428#0" type="passenger"/>
    <trip id="119" depart="701.99" from="619147739#1" to="-315658896#4" type="passenger"/>
    <trip id="120" depart="707.89" from="781983103#2" to="781983103#1" type="passenger"/>
    <trip id="121" depart="713.79" from="-315658899#1" to="777881144#1" type="passenger"/>
    <trip id="122" depart="719.69" from="619147739#1" to="-315658900#2" type="passenger"/>
    <trip id="123" depart="725.59" from="-243542153#3" to="-315658899#0" type="passenger"/>
    <trip id="124" depart="731.49" from="315658899#0" to="243542153#1" type="passenger"/>
    <trip id="125" depart="737.39" from="955312947#1" to="315658896#6" type="passenger"/>
    <trip id="126" depart="743.28" from="788296725" to="-315658896#5" type="passenger"/>
    <trip id="127" depart="749.18" from="955312947#0" to="-315658897#5" type="passenger"/>
    <trip id="128" depart="755.08" from="913406478" to="-333972428#0" type="passenger"/>
    <trip id="129" depart="760.98" from="-315658896#3" to="301285279#0" type="passenger"/>
    <trip id="130" depart="766.88" from="333972428#0" to="-464459667" type="passenger"/>
    <trip id="131" depart="772.78" from="315658897#3" to="315658896#4" type="passenger"/>
    <trip id="132" depart="778.68" from="-955312947#0" to="315658897#3" type="passenger"/>
    <trip id="133" depart="784.58" from="-315658900#2" to="333557072#2" type="passenger"/>
    <trip id="134" depart="790.48" from="-243542153#1" to="788296724#0" type="passenger"/>
    <trip id="135" depart="796.38" from="315658896#2" to="333972428#1" type="passenger"/>
    <trip id="136" depart="802.28" from="-788296724#0" to="-315658884#2" type="passenger"/>
    <trip id="137" depart="808.17" from="-333972428#2" to="777881147#3" type="passenger"/>
    <trip id="138" depart="814.07" from="-333972428#2" to="243542153#2" type="passenger"/>
    <trip id="139" depart="819.97" from="-315658896#5" to="243542153#3" type="passenger"/>
    <trip id="140" depart="825.87" from="788296725" to="318747848#2" type="passenger"/>
    <trip id="141" depart="831.77" from="78628770#1" to="315658899#1" type="passenger"/>
    <trip id="142" depart="837.67" from="-333972428#1" to="315658897#0" type="passenger"/>
    <trip id="143" depart="843.57" from="218915135#1-AddedOffRampEdge" to="315658897#3" type="passenger"/>
    <trip id="144" depart="849.47" from="315658900#0" to="315658884#1" type="passenger"/>
    <trip id="145" depart="855.37" from="218915135#2" to="-315658900#0" type="passenger"/>
    <trip id="146" depart="861.27" from="619147739#2" to="-315658897#4" type="passenger"/>
    <trip id="147" depart="867.17" from="-315658896#1" to="315658896#4" type="passenger"/>
    <trip id="148" depart="873.06" from="777881144#0" to="379943755#1" type="passenger"/>
    <trip id="149" depart="878.96" from="315658900#1" to="-315658900#2" type="passenger"/>
    <trip id="150" depart="884.86" from="-315658900#1" to="315658884#2" type="passenger"/>
    <trip id="151" depart="890.76" from="218915135#0" to="315658900#0" type="passenger"/>
    <trip id="152" depart="896.66" from="-315658897#5" to="333557072#1" type="passenger"/>
    <trip id="153" depart="902.56" from="301285279#2" to="-318747848#1" type="passenger"/>
    <trip id="154" depart="908.46" from="315658900#0" to="-243542153#1" type="passenger"/>
    <trip id="155" depart="914.36" from="-315658896#3" to="243542153#3" type="passenger"/>
    <trip id="156" depart="920.26" from="-315658897#3" to="913406478" type="passenger"/>
    <trip id="157" depart="926.16" from="-315658900#2" to="777881147#3" type="passenger"/>
    <trip id="158" depart="932.06" from="243542153#1" to="619147739#2" type="passenger"/>
    <trip id="159" depart="937.95" from="315658900#1" to="955312947#1" type="passenger"/>
    <trip id="160" depart="943.85" from="315658897#2" to="913406478" type="passenger"/>
    <trip id="161" depart="949.75" from="301285279#0" to="-318747848#3" type="passenger"/>
    <trip id="162" depart="955.65" from="-315658900#2" to="315658900#1" type="passenger"/>
    <trip id="163" depart="961.55" from="464459667" to="315658896#5" type="passenger"/>
    <trip id="164" depart="967.45" from="315658897#5" to="-333972428#0" type="passenger"/>
    <trip id="165" depart="973.35" from="315658896#2" to="-315658897#1" type="passenger"/>
    <trip id="166" depart="979.25" from="-315658900#0" to="333557072#1" type="passenger"/>
    <trip id="167" depart="985.15" from="318747848#3" to="-315658884#2" type="passenger"/>
    <trip id="168" depart="991.05" from="-955312948" to="315658897#0" type="passenger"/>
    <trip id="169" depart="996.95" from="218915135#0" to="-315658900#0" type="passenger"/>
    <trip id="170" depart="1002.84" from="315658897#1" to="333557072#1" type="passenger"/>
    <trip id="171" depart="1008.74" from="-955312947#0" to="-243542153#1" type="passenger"/>
    <trip id="172" depart="1014.64" from="-581906883" to="379943755#1" type="passenger"/>
    <trip id="173" depart="1020.54" from="218915135#1" to="379943755#1" type="passenger"/>
    <trip id="174" depart="1026.44" from="315658896#3" to="315658899#0" type="passenger"/>
    <trip id="175" depart="1032.34" from="-315658899#1" to="-315658900#1" type="passenger"/>
    <trip id="176" depart="1038.24" from="218915135#1-AddedOffRampEdge" to="-301285279#0" type="passenger"/>
    <trip id="177" depart="1044.14" from="-955312948" to="-315658897#4" type="passenger"/>
    <trip id="178" depart="1050.04" from="243542153#2" to="-315658897#0" type="passenger"/>
    <trip id="179" depart="1055.94" from="-955312947#1" to="315658897#2" type="passenger"/>
    <trip id="180" depart="1061.84" from="-243542153#3" to="315658900#1" type="passenger"/>
    <trip id="181" depart="1067.73" from="-315658896#6" to="315658884#1" type="passenger"/>
    <trip id="182" depart="1073.63" from="-315658900#2" to="-315658896#2" type="passenger"/>
    <trip id="183" depart="1079.53" from="-243542153#2" to="315658896#6" type="passenger"/>
    <trip id="184" depart="1085.43" from="955312948" to="-955312947#1" type="passenger"/>
    <trip id="185" depart="1091.33" from="315658899#1" to="581906883" type="passenger"/>
    <trip id="186" depart="1097.23" from="315658899#1" to="379943755#1" type="passenger"/>
    <trip id="187" depart="1103.13" from="-243542153#2" to="-315658897#2" type="passenger"/>
    <trip id="188" depart="1109.03" from="315658896#5" to="-315658900#1" type="passenger"/>
    <trip id="189" depart="1114.93" from="318747848#2" to="464459667" type="passenger"/>
    <trip id="190" depart="1120.83" from="-315658897#2" to="315658899#0" type="passenger"/>
    <trip id="191" depart="1126.73" from="777881144#0" to="921117704" type="passenger"/>
    <trip id="192" depart="1132.62" from="-333972428#2" to="318747848#2" type="passenger"/>
    <trip id="193" depart="1138.52" from="318747848#1" to="315658900#0" type="passenger"/>
    <trip id="194" depart="1144.42" from="-315658896#2" to="464459667" type="passenger"/>
    <trip id="195" depart="1150.32" from="-315658896#4" to="955312947#1" type="passenger"/>
    <trip id="196" depart="1156.22" from="619147739#0" to="-955312947#1" type="passenger"/>
    <trip id="197" depart="1162.12" from="218915135#1" to="218915135#1" type="passenger"/>
    <trip id="198" depart="1168.02" from="315658884#1" to="-955312947#0" type="passenger"/>
    <trip id="199" depart="1173.92" from="-315658896#3" to="921117704" type="passenger"/>
    <trip id="200" depart="1179.82" from="315658899#0" to="777881145" type="passenger"/>
    <trip id="201" depart="1185.72" from="318747848#3" to="301285279#0" type="passenger"/>
    <trip id="202" depart="1191.62" from="333972428#0" to="921117704" type="passenger"/>
    <trip id="203" depart="1197.51" from="315658896#2" to="315658896#1" type="passenger"/>
    <trip id="204" depart="1203.41" from="218915135#1-AddedOffRampEdge" to="333972428#2" type="passenger"/>
    <trip id="205" depart="1209.31" from="-318747848#1" to="777881147#3" type="passenger"/>
    <trip id="206" depart="1215.21" from="781983104#0" to="-318747848#1" type="passenger"/>
    <trip id="207" depart="1221.11" from="243542153#2" to="315658899#0" type="passenger"/>
    <trip id="208" depart="1227.01" from="-315658899#0" to="619147739#2" type="passenger"/>
    <trip id="209" depart="1232.91" from="-464459667" to="781983104#0" type="passenger"/>
    <trip id="210" depart="1238.81" from="-315658896#1" to="333972428#1" type="passenger"/>
    <trip id="211" depart="1244.71" from="301285279#1" to="382947009" type="passenger"/>
    <trip id="212" depart="1250.61" from="318747848#1" to="315658900#2" type="passenger"/>
    <trip id="213" depart="1256.51" from="-315658896#2" to="-315658900#1" type="passenger"/>
    <trip id="214" depart="1262.40" from="318747848#1" to="-464459667" type="passenger"/>
    <trip id="215" depart="1268.30" from="315658897#0" to="315658884#2" type="passenger"/>
    <trip id="216" depart="1274.20" from="315658896#2" to="243542153#3" type="passenger"/>
    <trip id="217" depart="1280.10" from="318747848#2" to="-333972428#0" type="passenger"/>
    <trip id="218" depart="1286.00" from="-315658900#2" to="-315658896#5" type="passenger"/>
    <trip id="219" depart="1291.90" from="-315658897#4" to="-315658896#5" type="passenger"/>
    <trip id="220" depart="1297.80" from="315658896#2" to="382947009" type="passenger"/>
    <trip id="221" depart="1303.70" from="-315658897#4" to="-315658900#1" type="passenger"/>
    <trip id="222" depart="1309.60" from="301285279#1" to="333972428#2" type="passenger"/>
    <trip id="223" depart="1315.50" from="955312947#0" to="315658896#5" type="passenger"/>
    <trip id="224" depart="1321.40" from="-318747848#2" to="-315658896#3" type="passenger"/>
    <trip id="225" depart="1327.29" from="-315658897#5" to="-315658900#2" type="passenger"/>
    <trip id="226" depart="1333.19" from="-315658897#3" to="-243542153#2" type="passenger"/>
    <trip id="227" depart="1339.09" from="315658896#2" to="-333972428#0" type="passenger"/>
    <trip id="228" depart="1344.99" from="955312947#0" to="315658897#1" type="passenger"/>
    <trip id="229" depart="1350.89" from="318747848#2" to="-315658897#0" type="passenger"/>
    <trip id="230" depart="1356.79" from="781983103#2" to="315658896#2" type="passenger"/>
    <trip id="231" depart="1362.69" from="781983103#2" to="315658897#3" type="passenger"/>
    <trip id="232" depart="1368.59" from="301285279#0" to="301285279#1" type="passenger"/>
    <trip id="233" depart="1374.49" from="-315658897#4" to="-315658884#1" type="passenger"/>
    <trip id="234" depart="1380.39" from="788296725" to="315658884#2" type="passenger"/>
    <trip id="235" depart="1386.29" from="777881144#0" to="243542153#1" type="passenger"/>
    <trip id="236" depart="1392.18" from="-315658884#2" to="315658900#0" type="passenger"/>
    <trip id="237" depart="1398.08" from="955312948" to="-315658896#5" type="passenger"/>
    <trip id="238" depart="1403.98" from="382947009" to="315658899#0" type="passenger"/>
    <trip id="239" depart="1409.88" from="619147739#1" to="-315658900#2" type="passenger"/>
    <trip id="240" depart="1415.78" from="315658896#1" to="301285279#2" type="passenger"/>
    <trip id="241" depart="1421.68" from="218915135#2" to="781983103#1" type="passenger"/>
    <trip id="242" depart="1427.58" from="315658897#4" to="315658899#0" type="passenger"/>
    <trip id="243" depart="1433.48" from="-315658899#0" to="-315658900#0" type="passenger"/>
    <trip id="244" depart="1439.38" from="315658900#0" to="-315658897#3" type="passenger"/>
    <trip id="245" depart="1445.28" from="-315658897#3" to="-315658896#1" type="passenger"/>
    <trip id="246" depart="1451.18" from="-243542153#1" to="301285279#2" type="passenger"/>
    <trip id="247" depart="1457.07" from="-315658900#0" to="333557072#2" type="passenger"/>
    <trip id="248" depart="1462.97" from="318747848#2" to="301285279#2" type="passenger"/>
    <trip id="249" depart="1468.87" from="318747848#1" to="788296724#0" type="passenger"/>
    <trip id="250" depart="1474.77" from="619147739#1" to="315658900#0" type="passenger"/>
    <trip id="251" depart="1480.67" from="315658900#0" to="788296725" type="passenger"/>
    <trip id="252" depart="1486.57" from="218915135#1" to="315658897#0" type="passenger"/>
    <trip id="253" depart="1492.47" from="-315658897#2" to="-464459667" type="passenger"/>
    <trip id="254" depart="1498.37" from="-318747848#3" to="-315658897#0" type="passenger"/>
    <trip id="255" depart="1504.27" from="318747848#1" to="333557072#1" type="passenger"/>
    <trip id="256" depart="1510.17" from="788296725" to="315658896#3" type="passenger"/>
    <trip id="257" depart="1516.07" from="301285279#2" to="-315658896#1" type="passenger"/>
    <trip id="258" depart="1521.96" from="-333972428#3" to="-318747848#2" type="passenger"/>
    <trip id="259" depart="1527.86" from="-315658896#1" to="921117704" type="passenger"/>
    <trip id="260" depart="1533.76" from="315658900#1" to="-333972428#0" type="passenger"/>
    <trip id="261" depart="1539.66" from="301285279#0" to="315658900#2" type="passenger"/>
    <trip id="262" depart="1545.56" from="78628775#0" to="-315658897#5" type="passenger"/>
    <trip id="263" depart="1551.46" from="315658897#1" to="315658900#1" type="passenger"/>
    <trip id="264" depart="1557.36" from="301285279#2" to="-315658896#2" type="passenger"/>
    <trip id="265" depart="1563.26" from="315658900#1" to="781983103#1" type="passenger"/>
    <trip id="266" depart="1569.16" from="619147739#3" to="315658897#0" type="passenger"/>
    <trip id="267" depart="1575.06" from="243542153#1" to="-464459667" type="passenger"/>
    <trip id="268" depart="1580.96" from="-333972428#3" to="955312947#0" type="passenger"/>
    <trip id="269" depart="1586.85" from="-955312948" to="315658896#4" type="passenger"/>
    <trip id="270" depart="1592.75" from="955312947#1" to="315658900#3" type="passenger"/>
    <trip id="271" depart="1598.65" from="315658896#3" to="243542153#2" type="passenger"/>
    <trip id="272" depart="1604.55" from="-315658897#4" to="-955312948" type="passenger"/>
    <trip id="273" depart="1610.45" from="382947009" to="315658900#0" type="passenger"/>
    <trip id="274" depart="1616.35" from="382947009" to="-315658899#1" type="passenger"/>
    <trip id="275" depart="1622.25" from="315658896#3" to="788296724#0" type="passenger"/>
    <trip id="276" depart="1628.15" from="218915135#1-AddedOffRampEdge" to="333557072#1" type="passenger"/>
    <trip id="277" depart="1634.05" from="-315658896#4" to="955312947#0" type="passenger"/>
    <trip id="278" depart="1639.95" from="315658897#3" to="-318747848#1" type="passenger"/>
    <trip id="279" depart="1645.85" from="-315658897#1" to="315658897#0" type="passenger"/>
    <trip id="280" depart="1651.74" from="315658896#4" to="-315658896#3" type="passenger"/>
    <trip id="281" depart="1657.64" from="243542153#2" to="-315658896#5" type="passenger"/>
    <trip id="282" depart="1663.54" from="-318747848#1" to="777881145" type="passenger"/>
    <trip id="283" depart="1669.44" from="955312947#1" to="-318747848#1" type="passenger"/>
    <trip id="284" depart="1675.34" from="78628775#2" to="315658896#3" type="passenger"/>
    <trip id="285" depart="1681.24" from="781983104#0" to="781983103#1" type="passenger"/>
    <trip id="286" depart="1687.14" from="218915135#0" to="788296725" type="passenger"/>
    <trip id="287" depart="1693.04" from="315658884#1" to="777881144#1" type="passenger"/>
    <trip id="288" depart="1698.94" from="315658897#1" to="955312948" type="passenger"/>
    <trip id="289" depart="1704.84" from="301285279#1" to="-315658897#2" type="passenger"/>
    <trip id="290" depart="1710.74" from="315658896#2" to="-955312947#0" type="passenger"/>
    <trip id="291" depart="1716.63" from="315658896#4" to="315658897#0" type="passenger"/>
    <trip id="292" depart="1722.53" from="-315658897#4" to="333557072#1" type="passenger"/>
    <trip id="293" depart="1728.43" from="315658897#0" to="-315658900#2" type="passenger"/>
    <trip id="294" depart="1734.33" from="315658900#1" to="777881144#1" type="passenger"/>
    <trip id="295" depart="1740.23" from="955312947#1" to="315658896#2" type="passenger"/>
    <trip id="296" depart="1746.13" from="315658897#1" to="781983103#2" type="passenger"/>
    <trip id="297" depart="1752.03" from="781983103#2" to="301285279#1" type="passenger"/>
    <trip id="298" depart="1757.93" from="315658896#1" to="301285279#2" type="passenger"/>
    <trip id="299" depart="1763.83" from="315658900#0" to="-315658897#3" type="passenger"/>
    <trip id="300" depart="1769.73" from="301285279#0" to="921117704" type="passenger"/>
    <trip id="301" depart="1775.62" from="-464459667" to="318747848#3" type="passenger"/>
    <trip id="302" depart="1781.52" from="315658899#1" to="777881147#3" type="passenger"/>
    <trip id="303" depart="1787.42" from="-315658884#1" to="315658900#0" type="passenger"/>
    <trip id="304" depart="1793.32" from="78628775#2" to="955312948" type="passenger"/>
    <trip id="305" depart="1799.22" from="-315658896#2" to="315658900#1" type="passenger"/>
</routes>
