<?xml version="1.0" encoding="UTF-8"?>

<!-- generated on 2026-04-17 02:58:37.317615 by Eclipse SUMO randomTrips.py v1.26.0
<configuration>
    <net-file value="/Users/junlee/Desktop/2026-1/js/result/tradeoff_pet_top12_seed12_60min_20260417_025716/sumo_nets/cw_9628/network.net.xml"/>
    <output-trip-file value="/Users/junlee/Desktop/2026-1/js/result/tradeoff_pet_top12_seed12_60min_20260417_025716/sumo_nets/cw_9628/routes_seed45.trips.xml"/>
    <route-file value="/Users/junlee/Desktop/2026-1/js/result/tradeoff_pet_top12_seed12_60min_20260417_025716/sumo_nets/cw_9628/routes_seed45.rou.xml"/>
    <vehicle-class value="passenger"/>
    <seed value="45"/>
    <period value="1.6313457769297386"/>
</configuration>
-->

<routes xmlns:xsi="http://www.w3.org/2001/XMLSchema-instance" xsi:noNamespaceSchemaLocation="http://sumo.dlr.de/xsd/routes_file.xsd">
    <vType id="passenger" vClass="passenger"/>
    <trip id="0" depart="0.00" from="-377373710#1" to="1110186416#2" type="passenger"/>
    <trip id="1" depart="1.63" from="-368834998#3" to="-377373722#1" type="passenger"/>
    <trip id="2" depart="3.26" from="-368834998#2" to="-224260206#1" type="passenger"/>
    <trip id="3" depart="4.89" from="-377373713#1" to="-377373577#0" type="passenger"/>
    <trip id="4" depart="6.53" from="-377373722#0" to="377373583#3" type="passenger"/>
    <trip id="5" depart="8.16" from="-224260206#6" to="328442840#0" type="passenger"/>
    <trip id="6" depart="9.79" from="-377373579#2" to="377373638#0" type="passenger"/>
    <trip id="7" depart="11.42" from="377373713#1" to="377373582#0" type="passenger"/>
    <trip id="8" depart="13.05" from="-368834998#2" to="-464399098#3" type="passenger"/>
    <trip id="9" depart="14.68" from="377373582#0" to="464240154#3" type="passenger"/>
    <trip id="10" depart="16.31" from="-377373583#2" to="-377373638#0" type="passenger"/>
    <trip id="11" depart="17.94" from="377373612#0" to="515561247" type="passenger"/>
    <trip id="12" depart="19.58" from="-377373556#1" to="-368834998#3" type="passenger"/>
    <trip id="13" depart="21.21" from="377373722#0" to="377373583#1" type="passenger"/>
    <trip id="14" depart="22.84" from="377373675" to="368834998#2" type="passenger"/>
    <trip id="15" depart="24.47" from="464240154#1" to="464240154#1" type="passenger"/>
    <trip id="16" depart="26.10" from="-464240154#2" to="328442840#1" type="passenger"/>
    <trip id="17" depart="27.73" from="-224260206#3" to="1110186416#3" type="passenger"/>
    <trip id="18" depart="29.36" from="368834998#3" to="-377373710#0" type="passenger"/>
    <trip id="19" depart="31.00" from="1110155154#1" to="377373710#0" type="passenger"/>
    <trip id="20" depart="32.63" from="-377373579#3" to="1110155154#3" type="passenger"/>
    <trip id="21" depart="34.26" from="-368834998#4" to="-464240154#2" type="passenger"/>
    <trip id="22" depart="35.89" from="377373722#4" to="328442821" type="passenger"/>
    <trip id="23" depart="37.52" from="-224260206#5" to="377373713#3" type="passenger"/>
    <trip id="24" depart="39.15" from="377373577#1" to="1113247891#3" type="passenger"/>
    <trip id="25" depart="40.78" from="-377373713#3" to="-377373710#1" type="passenger"/>
    <trip id="26" depart="42.41" from="-377373583#3" to="328442840#0" type="passenger"/>
    <trip id="27" depart="44.05" from="-328442821" to="464399098#3" type="passenger"/>
    <trip id="28" depart="45.68" from="-377373577#1" to="328442840#0" type="passenger"/>
    <trip id="29" depart="47.31" from="224260206#6" to="-377373943#1" type="passenger"/>
    <trip id="30" depart="48.94" from="-377373713#0" to="1110155154#0" type="passenger"/>
    <trip id="31" depart="50.57" from="377373556#1" to="1113247891#2" type="passenger"/>
    <trip id="32" depart="52.20" from="377373577#2" to="1110186416#3" type="passenger"/>
    <trip id="33" depart="53.83" from="-377373579#4" to="-224260206#3" type="passenger"/>
    <trip id="34" depart="55.47" from="-377373556#1" to="328442817" type="passenger"/>
    <trip id="35" depart="57.10" from="377373638#0" to="377373722#3" type="passenger"/>
    <trip id="36" depart="58.73" from="-902547939" to="224260206#6" type="passenger"/>
    <trip id="37" depart="60.36" from="377373713#1" to="-464240154#3" type="passenger"/>
    <trip id="38" depart="61.99" from="377373710#1" to="-464240154#2" type="passenger"/>
    <trip id="39" depart="63.62" from="377373582#1" to="377373722#1" type="passenger"/>
    <trip id="40" depart="65.25" from="-368834998#2" to="224260206#4" type="passenger"/>
    <trip id="41" depart="66.89" from="-377373638#1" to="-377373943#1" type="passenger"/>
    <trip id="42" depart="68.52" from="377373722#4" to="-377373584#1" type="passenger"/>
    <trip id="43" depart="70.15" from="464399099" to="-464240154#3" type="passenger"/>
    <trip id="44" depart="71.78" from="1456415046#1" to="377373579#3" type="passenger"/>
    <trip id="45" depart="73.41" from="377373579#1" to="224260206#4" type="passenger"/>
    <trip id="46" depart="75.04" from="377373722#0" to="368834998#2" type="passenger"/>
    <trip id="47" depart="76.67" from="328442817" to="-328442821" type="passenger"/>
    <trip id="48" depart="78.30" from="-377373638#0" to="-328442817" type="passenger"/>
    <trip id="49" depart="79.94" from="368834998#3" to="-464240154#0" type="passenger"/>
    <trip id="50" depart="81.57" from="377373577#0" to="377373675" type="passenger"/>
    <trip id="51" depart="83.20" from="377373713#0" to="-464240154#1" type="passenger"/>
    <trip id="52" depart="84.83" from="516169308#3" to="1110155154#4" type="passenger"/>
    <trip id="53" depart="86.46" from="-464399099" to="377373710#0" type="passenger"/>
    <trip id="54" depart="88.09" from="377373579#3" to="-368834998#2" type="passenger"/>
    <trip id="55" depart="89.72" from="224260206#2" to="-464240154#3" type="passenger"/>
    <trip id="56" depart="91.36" from="-377373612#1" to="-464399098#2" type="passenger"/>
    <trip id="57" depart="92.99" from="377373584#0" to="377373577#1" type="passenger"/>
    <trip id="58" depart="94.62" from="328442821" to="377373584#4" type="passenger"/>
    <trip id="59" depart="96.25" from="1110155154#0" to="224260206#3" type="passenger"/>
    <trip id="60" depart="97.88" from="-377373577#1" to="377373556#1" type="passenger"/>
    <trip id="61" depart="99.51" from="377373578" to="328442840#1" type="passenger"/>
    <trip id="62" depart="101.14" from="377373577#1" to="-377373695" type="passenger"/>
    <trip id="63" depart="102.77" from="377373722#0" to="377373577#1" type="passenger"/>
    <trip id="64" depart="104.41" from="368834998#3" to="-377373579#1" type="passenger"/>
    <trip id="65" depart="106.04" from="224260206#4" to="-377373722#1" type="passenger"/>
    <trip id="66" depart="107.67" from="224260206#6" to="464240154#3" type="passenger"/>
    <trip id="67" depart="109.30" from="-464399099" to="-224260206#2" type="passenger"/>
    <trip id="68" depart="110.93" from="-377373579#0" to="1113247891#5" type="passenger"/>
    <trip id="69" depart="112.56" from="377373713#1" to="-328442817" type="passenger"/>
    <trip id="70" depart="114.19" from="1110155154#1" to="-377373722#1" type="passenger"/>
    <trip id="71" depart="115.83" from="1110186416#0" to="328442840#1" type="passenger"/>
    <trip id="72" depart="117.46" from="1113247891#5" to="-377373675" type="passenger"/>
    <trip id="73" depart="119.09" from="377373722#1" to="377373675" type="passenger"/>
    <trip id="74" depart="120.72" from="-377373556#1" to="464240154#3" type="passenger"/>
    <trip id="75" depart="122.35" from="377373577#1" to="1110155154#3" type="passenger"/>
    <trip id="76" depart="123.98" from="1110186418" to="-377373556#1" type="passenger"/>
    <trip id="77" depart="125.61" from="1110155154#1" to="-377373583#2" type="passenger"/>
    <trip id="78" depart="127.24" from="1456415046#1" to="377373715#1" type="passenger"/>
    <trip id="79" depart="128.88" from="464399098#0" to="-377373579#0" type="passenger"/>
    <trip id="80" depart="130.51" from="377373579#3" to="-464399098#3" type="passenger"/>
    <trip id="81" depart="132.14" from="-902547939" to="377373715#2" type="passenger"/>
    <trip id="82" depart="133.77" from="368834998#3" to="-224260206#3" type="passenger"/>
    <trip id="83" depart="135.40" from="-224260206#6" to="377373710#1" type="passenger"/>
    <trip id="84" depart="137.03" from="328442821" to="377373583#3" type="passenger"/>
    <trip id="85" depart="138.66" from="1113247891#5" to="377373579#4" type="passenger"/>
    <trip id="86" depart="140.30" from="-464240154#2" to="-377373943#1" type="passenger"/>
    <trip id="87" depart="141.93" from="-464240154#1" to="-377373710#0" type="passenger"/>
    <trip id="88" depart="143.56" from="464399099" to="377373722#0" type="passenger"/>
    <trip id="89" depart="145.19" from="224260206#1" to="-224260206#6" type="passenger"/>
    <trip id="90" depart="146.82" from="377373556#0" to="515561247" type="passenger"/>
    <trip id="91" depart="148.45" from="-377373943#1" to="328442840#0" type="passenger"/>
    <trip id="92" depart="150.08" from="-377373582#1" to="-377373556#1" type="passenger"/>
    <trip id="93" depart="151.72" from="377373579#1" to="-464240154#1" type="passenger"/>
    <trip id="94" depart="153.35" from="516169308#2" to="464240154#2" type="passenger"/>
    <trip id="95" depart="154.98" from="-377373713#1" to="-377373556#0" type="passenger"/>
    <trip id="96" depart="156.61" from="377373710#1" to="377373713#1" type="passenger"/>
    <trip id="97" depart="158.24" from="-464399098#2" to="377373584#2" type="passenger"/>
    <trip id="98" depart="159.87" from="1110186416#0" to="328442821" type="passenger"/>
    <trip id="99" depart="161.50" from="377373713#1" to="377373579#2" type="passenger"/>
    <trip id="100" depart="163.13" from="516169308#2" to="-377373579#0" type="passenger"/>
    <trip id="101" depart="164.77" from="-377373556#1" to="-377373577#1" type="passenger"/>
    <trip id="102" depart="166.40" from="-368834998#2" to="-377373579#1" type="passenger"/>
    <trip id="103" depart="168.03" from="-224260206#4" to="1113247891#4" type="passenger"/>
    <trip id="104" depart="169.66" from="377373556#0" to="-377373699" type="passenger"/>
    <trip id="105" depart="171.29" from="-224260206#3" to="-224260206#5" type="passenger"/>
    <trip id="106" depart="172.92" from="377373579#2" to="-224260206#0" type="passenger"/>
    <trip id="107" depart="174.55" from="-377373642" to="1110155154#2" type="passenger"/>
    <trip id="108" depart="176.19" from="1110155154#0" to="464399098#0" type="passenger"/>
    <trip id="109" depart="177.82" from="464399098#0" to="1110186416#6" type="passenger"/>
    <trip id="110" depart="179.45" from="368834998#1" to="-377373943#0" type="passenger"/>
    <trip id="111" depart="181.08" from="377373556#1" to="-328442821" type="passenger"/>
    <trip id="112" depart="182.71" from="-377373584#1" to="377373699" type="passenger"/>
    <trip id="113" depart="184.34" from="1110186416#3" to="1110186416#3" type="passenger"/>
    <trip id="114" depart="185.97" from="377373710#1" to="368834998#4" type="passenger"/>
    <trip id="115" depart="187.60" from="-377373583#2" to="1110155154#4" type="passenger"/>
    <trip id="116" depart="189.24" from="377373715#1" to="-377373722#4" type="passenger"/>
    <trip id="117" depart="190.87" from="464399099" to="-377373583#2" type="passenger"/>
    <trip id="118" depart="192.50" from="-902547939" to="-377373583#1" type="passenger"/>
    <trip id="119" depart="194.13" from="377373577#0" to="377373583#3" type="passenger"/>
    <trip id="120" depart="195.76" from="377373722#3" to="-377373579#0" type="passenger"/>
    <trip id="121" depart="197.39" from="-377373710#1" to="377373577#2" type="passenger"/>
    <trip id="122" depart="199.02" from="368834998#1" to="-377373722#4" type="passenger"/>
    <trip id="123" depart="200.66" from="-377373710#1" to="-368834998#3" type="passenger"/>
    <trip id="124" depart="202.29" from="-377373612#1" to="377373713#3" type="passenger"/>
    <trip id="125" depart="203.92" from="-464399098#2" to="368834998#4" type="passenger"/>
    <trip id="126" depart="205.55" from="-377373579#1" to="377373638#0" type="passenger"/>
    <trip id="127" depart="207.18" from="377373710#1" to="1110186416#3" type="passenger"/>
    <trip id="128" depart="208.81" from="1456415046#0" to="-224260206#2" type="passenger"/>
    <trip id="129" depart="210.44" from="377373579#0" to="1110186416#6" type="passenger"/>
    <trip id="130" depart="212.07" from="-464240154#1" to="377373713#1" type="passenger"/>
    <trip id="131" depart="213.71" from="-464240154#1" to="1110186418" type="passenger"/>
    <trip id="132" depart="215.34" from="377373612#0" to="377373943#1" type="passenger"/>
    <trip id="133" depart="216.97" from="1113247891#3" to="377373579#4" type="passenger"/>
    <trip id="134" depart="218.60" from="377373722#1" to="1113247891#6" type="passenger"/>
    <trip id="135" depart="220.23" from="-377373583#2" to="224260206#3" type="passenger"/>
    <trip id="136" depart="221.86" from="377373715#2" to="-377373579#3" type="passenger"/>
    <trip id="137" depart="223.49" from="-377373583#1" to="368834998#1" type="passenger"/>
    <trip id="138" depart="225.13" from="-377373579#3" to="377373584#3" type="passenger"/>
    <trip id="139" depart="226.76" from="368834998#1" to="1110186416#0" type="passenger"/>
    <trip id="140" depart="228.39" from="-464399099" to="-224260206#0" type="passenger"/>
    <trip id="141" depart="230.02" from="1110186416#0" to="1113247891#6" type="passenger"/>
    <trip id="142" depart="231.65" from="377373722#4" to="-377373612#0" type="passenger"/>
    <trip id="143" depart="233.28" from="368834998#4" to="377373710#0" type="passenger"/>
    <trip id="144" depart="234.91" from="377373722#4" to="377373642" type="passenger"/>
    <trip id="145" depart="236.55" from="377373577#1" to="-464399099" type="passenger"/>
    <trip id="146" depart="238.18" from="464399099" to="464399098#3" type="passenger"/>
    <trip id="147" depart="239.81" from="1110155154#1" to="-464399098#2" type="passenger"/>
    <trip id="148" depart="241.44" from="516169308#0" to="-224260206#4" type="passenger"/>
    <trip id="149" depart="243.07" from="-377373584#2" to="328442840#1" type="passenger"/>
    <trip id="150" depart="244.70" from="-464399099" to="377373583#3" type="passenger"/>
    <trip id="151" depart="246.33" from="377373713#0" to="-377373699" type="passenger"/>
    <trip id="152" depart="247.96" from="1113247891#5" to="1110155154#4-AddedOnRampEdge" type="passenger"/>
    <trip id="153" depart="249.60" from="377373583#1" to="377373578" type="passenger"/>
    <trip id="154" depart="251.23" from="-464240154#2" to="464399098#2" type="passenger"/>
    <trip id="155" depart="252.86" from="-377373722#3" to="368834998#2" type="passenger"/>
    <trip id="156" depart="254.49" from="-377373579#1" to="-377373699" type="passenger"/>
    <trip id="157" depart="256.12" from="-377373578" to="377373579#3" type="passenger"/>
    <trip id="158" depart="257.75" from="1113247891#3" to="-377373556#0" type="passenger"/>
    <trip id="159" depart="259.38" from="377373713#0" to="1113247891#6" type="passenger"/>
    <trip id="160" depart="261.02" from="377373577#1" to="-377373612#0" type="passenger"/>
    <trip id="161" depart="262.65" from="377373579#1" to="-377373722#1" type="passenger"/>
    <trip id="162" depart="264.28" from="516169308#1" to="-368834998#0" type="passenger"/>
    <trip id="163" depart="265.91" from="-328442821" to="-464240154#3" type="passenger"/>
    <trip id="164" depart="267.54" from="-377373579#2" to="-377373578" type="passenger"/>
    <trip id="165" depart="269.17" from="377373579#3" to="-377373582#1" type="passenger"/>
    <trip id="166" depart="270.80" from="377373556#1" to="377373584#4" type="passenger"/>
    <trip id="167" depart="272.43" from="-368834998#4" to="-377373582#1" type="passenger"/>
    <trip id="168" depart="274.07" from="1110186418" to="-464240154#3" type="passenger"/>
    <trip id="169" depart="275.70" from="-377373583#1" to="-377373583#1" type="passenger"/>
    <trip id="170" depart="277.33" from="-377373710#1" to="-224260206#1" type="passenger"/>
    <trip id="171" depart="278.96" from="-377373583#1" to="224260206#4" type="passenger"/>
    <trip id="172" depart="280.59" from="1113247891#6" to="1110186416#3" type="passenger"/>
    <trip id="173" depart="282.22" from="224260206#1" to="224260206#2" type="passenger"/>
    <trip id="174" depart="283.85" from="516169308#3" to="1113247891#3" type="passenger"/>
    <trip id="175" depart="285.49" from="377373675" to="1113247891#5" type="passenger"/>
    <trip id="176" depart="287.12" from="377373715#2" to="464419346" type="passenger"/>
    <trip id="177" depart="288.75" from="-377373584#3" to="377373722#3" type="passenger"/>
    <trip id="178" depart="290.38" from="377373556#0" to="377373722#3" type="passenger"/>
    <trip id="179" depart="292.01" from="-328442821" to="377373710#1" type="passenger"/>
    <trip id="180" depart="293.64" from="-377373713#1" to="-377373715#2" type="passenger"/>
    <trip id="181" depart="295.27" from="377373577#0" to="-377373722#4" type="passenger"/>
    <trip id="182" depart="296.90" from="224260206#1" to="377373710#0" type="passenger"/>
    <trip id="183" depart="298.54" from="-464399098#3" to="902562033" type="passenger"/>
    <trip id="184" depart="300.17" from="377373943#0" to="377373583#1" type="passenger"/>
    <trip id="185" depart="301.80" from="377373715#1" to="-224260206#2" type="passenger"/>
    <trip id="186" depart="303.43" from="368834998#3" to="377373943#1" type="passenger"/>
    <trip id="187" depart="305.06" from="-464240154#1" to="224260206#6" type="passenger"/>
    <trip id="188" depart="306.69" from="-377373556#1" to="377373584#2" type="passenger"/>
    <trip id="189" depart="308.32" from="368834998#1" to="-328442817" type="passenger"/>
    <trip id="190" depart="309.96" from="-377373722#3" to="377373577#1" type="passenger"/>
    <trip id="191" depart="311.59" from="-368834998#3" to="377373710#0" type="passenger"/>
    <trip id="192" depart="313.22" from="377373579#2" to="377373577#2" type="passenger"/>
    <trip id="193" depart="314.85" from="-377373722#3" to="-377373556#1" type="passenger"/>
    <trip id="194" depart="316.48" from="-377373638#1" to="1113247891#5" type="passenger"/>
    <trip id="195" depart="318.11" from="464399098#0" to="1456415046#1" type="passenger"/>
    <trip id="196" depart="319.74" from="377373715#1" to="1110186416#1" type="passenger"/>
    <trip id="197" depart="321.38" from="377373579#1" to="-377373579#3" type="passenger"/>
    <trip id="198" depart="323.01" from="377373579#0" to="1113247891#5" type="passenger"/>
    <trip id="199" depart="324.64" from="377373642" to="1110186416#3" type="passenger"/>
    <trip id="200" depart="326.27" from="1110186416#1" to="1110155154#1" type="passenger"/>
    <trip id="201" depart="327.90" from="377373722#4" to="-377373556#0" type="passenger"/>
    <trip id="202" depart="329.53" from="-902547939" to="464240154#1" type="passenger"/>
    <trip id="203" depart="331.16" from="-224260206#6" to="377373710#0" type="passenger"/>
    <trip id="204" depart="332.79" from="368834998#0" to="377373579#3" type="passenger"/>
    <trip id="205" depart="334.43" from="-377373638#1" to="377373699" type="passenger"/>
    <trip id="206" depart="336.06" from="377373638#1" to="224260206#4" type="passenger"/>
    <trip id="207" depart="337.69" from="-377373638#0" to="377373638#1" type="passenger"/>
    <trip id="208" depart="339.32" from="-377373710#1" to="-377373579#3" type="passenger"/>
    <trip id="209" depart="340.95" from="-377373584#3" to="377373612#1" type="passenger"/>
    <trip id="210" depart="342.58" from="1110186416#1" to="-224260206#0" type="passenger"/>
    <trip id="211" depart="344.21" from="-377373699" to="1110186416#6" type="passenger"/>
    <trip id="212" depart="345.85" from="-464240154#3" to="464240154#3" type="passenger"/>
    <trip id="213" depart="347.48" from="377373695" to="377373722#0" type="passenger"/>
    <trip id="214" depart="349.11" from="1113247891#2" to="-368834998#0" type="passenger"/>
    <trip id="215" depart="350.74" from="-377373695" to="-377373579#1" type="passenger"/>
    <trip id="216" depart="352.37" from="-328442817" to="-464399099" type="passenger"/>
    <trip id="217" depart="354.00" from="516169308#0" to="-377373722#0" type="passenger"/>
    <trip id="218" depart="355.63" from="377373582#0" to="-464399098#2" type="passenger"/>
    <trip id="219" depart="357.26" from="-377373722#4" to="-464399098#3" type="passenger"/>
    <trip id="220" depart="358.90" from="1110186418" to="-464399099" type="passenger"/>
    <trip id="221" depart="360.53" from="377373710#1" to="377373579#4" type="passenger"/>
    <trip id="222" depart="362.16" from="377373713#0" to="377373612#1" type="passenger"/>
    <trip id="223" depart="363.79" from="377373722#0" to="-368834998#2" type="passenger"/>
    <trip id="224" depart="365.42" from="-464240154#1" to="328442821" type="passenger"/>
    <trip id="225" depart="367.05" from="377373722#0" to="-224260206#1" type="passenger"/>
    <trip id="226" depart="368.68" from="-464240154#2" to="-377373583#2" type="passenger"/>
    <trip id="227" depart="370.32" from="-377373710#1" to="377373612#1" type="passenger"/>
    <trip id="228" depart="371.95" from="224260206#6" to="-328442821" type="passenger"/>
    <trip id="229" depart="373.58" from="-377373695" to="-377373722#4" type="passenger"/>
    <trip id="230" depart="375.21" from="-377373577#1" to="377373612#1" type="passenger"/>
    <trip id="231" depart="376.84" from="516169308#1" to="377373943#1" type="passenger"/>
    <trip id="232" depart="378.47" from="-224260206#3" to="377373695" type="passenger"/>
    <trip id="233" depart="380.10" from="-377373642" to="-377373583#2" type="passenger"/>
    <trip id="234" depart="381.73" from="1110155154#0" to="377373715#2" type="passenger"/>
    <trip id="235" depart="383.37" from="377373710#0" to="-377373577#1" type="passenger"/>
    <trip id="236" depart="385.00" from="-377373579#0" to="377373638#1" type="passenger"/>
    <trip id="237" depart="386.63" from="377373722#1" to="377373638#0" type="passenger"/>
    <trip id="238" depart="388.26" from="-377373715#1" to="1110186418" type="passenger"/>
    <trip id="239" depart="389.89" from="1110155154#1" to="224260206#6" type="passenger"/>
    <trip id="240" depart="391.52" from="377373675" to="464399098#3" type="passenger"/>
    <trip id="241" depart="393.15" from="-377373577#1" to="-377373577#1" type="passenger"/>
    <trip id="242" depart="394.79" from="-464399098#3" to="-377373695" type="passenger"/>
    <trip id="243" depart="396.42" from="377373612#1" to="377373556#1" type="passenger"/>
    <trip id="244" depart="398.05" from="-464399098#3" to="-377373612#1" type="passenger"/>
    <trip id="245" depart="399.68" from="377373943#0" to="-377373577#2" type="passenger"/>
    <trip id="246" depart="401.31" from="377373722#4" to="-377373722#4" type="passenger"/>
    <trip id="247" depart="402.94" from="-224260206#4" to="464399098#3" type="passenger"/>
    <trip id="248" depart="404.57" from="224260206#4" to="-377373722#4" type="passenger"/>
    <trip id="249" depart="406.21" from="-377373579#3" to="377373642" type="passenger"/>
    <trip id="250" depart="407.84" from="1113247891#4" to="-377373579#0" type="passenger"/>
    <trip id="251" depart="409.47" from="-377373612#0" to="328442817" type="passenger"/>
    <trip id="252" depart="411.10" from="224260206#1" to="1110155154#4-AddedOnRampEdge" type="passenger"/>
    <trip id="253" depart="412.73" from="377373715#2" to="1110155154#4-AddedOnRampEdge" type="passenger"/>
    <trip id="254" depart="414.36" from="-368834998#4" to="1110155154#4" type="passenger"/>
    <trip id="255" depart="415.99" from="-377373675" to="1110155154#1" type="passenger"/>
    <trip id="256" depart="417.62" from="-377373579#0" to="377373579#3" type="passenger"/>
    <trip id="257" depart="419.26" from="377373579#2" to="328442840#0" type="passenger"/>
    <trip id="258" depart="420.89" from="1113247891#4" to="1110155154#0" type="passenger"/>
    <trip id="259" depart="422.52" from="-377373579#3" to="-328442817" type="passenger"/>
    <trip id="260" depart="424.15" from="-368834998#3" to="-377373584#1" type="passenger"/>
    <trip id="261" depart="425.78" from="-368834998#3" to="-328442821" type="passenger"/>
    <trip id="262" depart="427.41" from="-377373612#0" to="1113247891#3" type="passenger"/>
    <trip id="263" depart="429.04" from="-377373579#2" to="1110155154#1" type="passenger"/>
    <trip id="264" depart="430.68" from="-377373722#1" to="-377373583#0" type="passenger"/>
    <trip id="265" depart="432.31" from="-464399098#2" to="-464399098#2" type="passenger"/>
    <trip id="266" depart="433.94" from="-377373583#2" to="-377373715#2" type="passenger"/>
    <trip id="267" depart="435.57" from="-377373710#0" to="328442817" type="passenger"/>
    <trip id="268" depart="437.20" from="224260206#5" to="-377373556#1" type="passenger"/>
    <trip id="269" depart="438.83" from="-377373710#1" to="-377373943#0" type="passenger"/>
    <trip id="270" depart="440.46" from="-224260206#4" to="-377373638#0" type="passenger"/>
    <trip id="271" depart="442.09" from="-377373583#1" to="-464240154#1" type="passenger"/>
    <trip id="272" depart="443.73" from="464399099" to="-368834998#0" type="passenger"/>
    <trip id="273" depart="445.36" from="-377373584#2" to="-377373612#0" type="passenger"/>
    <trip id="274" depart="446.99" from="-377373713#1" to="377373583#2" type="passenger"/>
    <trip id="275" depart="448.62" from="1110155154#0" to="-328442817" type="passenger"/>
    <trip id="276" depart="450.25" from="377373579#3" to="377373583#3" type="passenger"/>
    <trip id="277" depart="451.88" from="-377373579#0" to="377373710#0" type="passenger"/>
    <trip id="278" depart="453.51" from="377373675" to="1110186416#2" type="passenger"/>
    <trip id="279" depart="455.15" from="377373579#3" to="-377373722#4" type="passenger"/>
    <trip id="280" depart="456.78" from="377373583#1" to="1110155154#2" type="passenger"/>
    <trip id="281" depart="458.41" from="377373722#4" to="224260206#6" type="passenger"/>
    <trip id="282" depart="460.04" from="-377373579#1" to="464419346" type="passenger"/>
    <trip id="283" depart="461.67" from="377373638#0" to="464240154#3" type="passenger"/>
    <trip id="284" depart="463.30" from="377373578" to="1113247891#5" type="passenger"/>
    <trip id="285" depart="464.93" from="-377373715#1" to="377373556#1" type="passenger"/>
    <trip id="286" depart="466.56" from="-377373722#0" to="-368834998#0" type="passenger"/>
    <trip id="287" depart="468.20" from="-377373556#1" to="377373699" type="passenger"/>
    <trip id="288" depart="469.83" from="-377373583#2" to="377373713#3" type="passenger"/>
    <trip id="289" depart="471.46" from="377373722#0" to="328442840#0" type="passenger"/>
    <trip id="290" depart="473.09" from="-224260206#6" to="377373713#0" type="passenger"/>
    <trip id="291" depart="474.72" from="-377373582#1" to="328442817" type="passenger"/>
    <trip id="292" depart="476.35" from="464399099" to="377373584#3" type="passenger"/>
    <trip id="293" depart="477.98" from="-377373577#1" to="-377373579#1" type="passenger"/>
    <trip id="294" depart="479.62" from="515561247" to="1113247891#3" type="passenger"/>
    <trip id="295" depart="481.25" from="377373612#1" to="377373722#4" type="passenger"/>
    <trip id="296" depart="482.88" from="377373582#0" to="-464419346" type="passenger"/>
    <trip id="297" depart="484.51" from="377373638#1" to="1110155154#3" type="passenger"/>
    <trip id="298" depart="486.14" from="-377373715#2" to="368834998#2" type="passenger"/>
    <trip id="299" depart="487.77" from="368834998#1" to="1110186416#3" type="passenger"/>
    <trip id="300" depart="489.40" from="377373583#2" to="377373710#1" type="passenger"/>
    <trip id="301" depart="491.04" from="224260206#5" to="368834998#2" type="passenger"/>
    <trip id="302" depart="492.67" from="377373584#0" to="224260206#5" type="passenger"/>
    <trip id="303" depart="494.30" from="-377373583#2" to="-224260206#2" type="passenger"/>
    <trip id="304" depart="495.93" from="-377373710#0" to="-377373577#2" type="passenger"/>
    <trip id="305" depart="497.56" from="224260206#3" to="-377373582#1" type="passenger"/>
    <trip id="306" depart="499.19" from="-224260206#2" to="377373638#1" type="passenger"/>
    <trip id="307" depart="500.82" from="377373710#1" to="-377373699" type="passenger"/>
    <trip id="308" depart="502.45" from="-377373638#0" to="377373710#1" type="passenger"/>
    <trip id="309" depart="504.09" from="1110155154#0" to="-464240154#2" type="passenger"/>
    <trip id="310" depart="505.72" from="-464240154#2" to="-377373582#0" type="passenger"/>
    <trip id="311" depart="507.35" from="377373943#0" to="-464399098#3" type="passenger"/>
    <trip id="312" depart="508.98" from="-377373579#4" to="-368834998#3" type="passenger"/>
    <trip id="313" depart="510.61" from="-377373582#1" to="377373713#1" type="passenger"/>
    <trip id="314" depart="512.24" from="377373584#0" to="377373713#1" type="passenger"/>
    <trip id="315" depart="513.87" from="224260206#0" to="464399098#3" type="passenger"/>
    <trip id="316" depart="515.51" from="368834998#0" to="-377373722#0" type="passenger"/>
    <trip id="317" depart="517.14" from="1456415046#0" to="-377373943#1" type="passenger"/>
    <trip id="318" depart="518.77" from="-377373675" to="1110186416#6" type="passenger"/>
    <trip id="319" depart="520.40" from="368834998#0" to="-224260206#3" type="passenger"/>
    <trip id="320" depart="522.03" from="377373695" to="-368834998#0" type="passenger"/>
    <trip id="321" depart="523.66" from="1110186416#0" to="1456415046#1" type="passenger"/>