<?xml version='1.0' encoding='utf-8'?>
<routes>
  <vType id="adult" vClass="pedestrian" minGap="0.25" width="0.5" length="0.25" maxSpeed="1.5" speedDev="0.1" />
  <vType id="elderly" vClass="pedestrian" minGap="0.25" width="0.5" length="0.25" maxSpeed="1.13" speedDev="0.15" color="255,0,0" />
  <person id="ped_0" depart="38.98" type="adult">
    <walk from="778460311#1" to="-315658900#7" />
  </person>
  <person id="ped_1" depart="45.41" type="adult">
    <walk from="778460311#1" to="-315658900#7" />
  </person>
  <person id="ped_2" depart="47.45" type="adult">
    <walk from="778460311#1" to="-315658900#7" />
  </person>
  <person id="ped_3" depart="75.75" type="elderly">
    <walk from="778460311#1" to="-315658900#7" />
  </person>
  <person id="ped_4" depart="76.63" type="adult">
    <walk from="778460311#1" to="-315658900#7" />
  </person>
  <person id="ped_5" depart="86.33" type="adult">
    <walk from="778460311#1" to="-315658900#7" />
  </person>
  <person id="ped_6" depart="86.43" type="adult">
    <walk from="778460311#1" to="-315658900#7" />
  </person>
  <person id="ped_7" depart="93.23" type="adult">
    <walk from="778460311#1" to="-315658900#7" />
  </person>
  <person id="ped_8" depart="101.86" type="adult">
    <walk from="778460311#1" to="-315658900#7" />
  </person>
  <person id="ped_9" depart="102.01" type="adult">
    <walk from="778460311#1" to="-315658900#7" />
  </person>
  <person id="ped_10" depart="102.81" type="adult">
    <walk from="778460311#1" to="-315658900#7" />
  </person>
  <person id="ped_11" depart="118.25" type="adult">
    <walk from="778460311#1" to="-315658900#7" />
  </person>
  <person id="ped_12" depart="118.92" type="adult">
    <walk from="778460311#1" to="-315658900#7" />
  </person>
  <person id="ped_13" depart="123.95" type="adult">
    <walk from="778460311#1" to="-315658900#7" />
  </person>
  <person id="ped_14" depart="134.82" type="elderly">
    <walk from="778460311#1" to="-315658900#7" />
  </person>
  <person id="ped_15" depart="139.39" type="adult">
    <walk from="778460311#1" to="-315658900#7" />
  </person>
  <person id="ped_16" depart="142.71" type="adult">
    <walk from="778460311#1" to="-315658900#7" />
  </person>
  <person id="ped_17" depart="146.48" type="adult">
    <walk from="778460311#1" to="-315658900#7" />
  </person>
  <person id="ped_18" depart="147.03" type="adult">
    <walk from="778460311#1" to="-315658900#7" />
  </person>
  <person id="ped_19" depart="180.90" type="adult">
    <walk from="778460311#1" to="-315658900#7" />
  </person>
  <person id="ped_20" depart="182.73" type="adult">
    <walk from="778460311#1" to="-315658900#7" />
  </person>
  <person id="ped_21" depart="189.35" type="adult">
    <walk from="778460311#1" to="-315658900#7" />
  </person>
  <person id="ped_22" depart="190.54" type="adult">
    <walk from="778460311#1" to="-315658900#7" />
  </person>
  <person id="ped_23" depart="198.73" type="adult">
    <walk from="778460311#1" to="-315658900#7" />
  </person>
  <person id="ped_24" depart="200.05" type="elderly">
    <walk from="778460311#1" to="-315658900#7" />
  </person>
  <person id="ped_25" depart="212.24" type="elderly">
    <walk from="778460311#1" to="-315658900#7" />
  </person>
  <person id="ped_26" depart="219.93" type="adult">
    <walk from="778460311#1" to="-315658900#7" />
  </person>
  <person id="ped_27" depart="246.60" type="adult">
    <walk from="778460311#1" to="-315658900#7" />
  </person>
  <person id="ped_28" depart="263.93" type="adult">
    <walk from="778460311#1" to="-315658900#7" />
  </person>
  <person id="ped_29" depart="270.08" type="adult">
    <walk from="778460311#1" to="-315658900#7" />
  </person>
  <person id="ped_30" depart="283.27" type="adult">
    <walk from="778460311#1" to="-315658900#7" />
  </person>
  <person id="ped_31" depart="303.41" type="adult">
    <walk from="778460311#1" to="-315658900#7" />
  </person>
  <person id="ped_32" depart="309.96" type="adult">
    <walk from="778460311#1" to="-315658900#7" />
  </person>
  <person id="ped_33" depart="319.49" type="adult">
    <walk from="778460311#1" to="-315658900#7" />
  </person>
  <person id="ped_34" depart="328.30" type="elderly">
    <walk from="778460311#1" to="-315658900#7" />
  </person>
  <person id="ped_35" depart="333.57" type="elderly">
    <walk from="778460311#1" to="-315658900#7" />
  </person>
  <person id="ped_36" depart="336.65" type="adult">
    <walk from="778460311#1" to="-315658900#7" />
  </person>
  <person id="ped_37" depart="338.10" type="elderly">
    <walk from="778460311#1" to="-315658900#7" />
  </person>
  <person id="ped_38" depart="341.58" type="elderly">
    <walk from="778460311#1" to="-315658900#7" />
  </person>
  <person id="ped_39" depart="356.08" type="elderly">
    <walk from="778460311#1" to="-315658900#7" />
  </person>
  <person id="ped_40" depart="369.30" type="adult">
    <walk from="778460311#1" to="-315658900#7" />
  </person>
  <person id="ped_41" depart="378.23" type="adult">
    <walk from="778460311#1" to="-315658900#7" />
  </person>
  <person id="ped_42" depart="378.92" type="adult">
    <walk from="778460311#1" to="-315658900#7" />
  </person>
  <person id="ped_43" depart="380.37" type="elderly">
    <walk from="778460311#1" to="-315658900#7" />
  </person>
  <person id="ped_44" depart="382.44" type="adult">
    <walk from="778460311#1" to="-315658900#7" />
  </person>
  <person id="ped_45" depart="383.60" type="adult">
    <walk from="778460311#1" to="-315658900#7" />
  </person>
  <person id="ped_46" depart="402.95" type="adult">
    <walk from="778460311#1" to="-315658900#7" />
  </person>
  <person id="ped_47" depart="432.68" type="elderly">
    <walk from="778460311#1" to="-315658900#7" />
  </person>
  <person id="ped_48" depart="450.79" type="elderly">
    <walk from="778460311#1" to="-315658900#7" />
  </person>
  <person id="ped_49" depart="461.99" type="elderly">
    <walk from="778460311#1" to="-315658900#7" />
  </person>
  <person id="ped_50" depart="467.82" type="adult">
    <walk from="778460311#1" to="-315658900#7" />
  </person>
  <person id="ped_51" depart="470.67" type="adult">
    <walk from="778460311#1" to="-315658900#7" />
  </person>
  <person id="ped_52" depart="472.03" type="adult">
    <walk from="778460311#1" to="-315658900#7" />
  </person>
  <person id="ped_53" depart="486.18" type="adult">
    <walk from="778460311#1" to="-315658900#7" />
  </person>
  <person id="ped_54" depart="500.91" type="adult">
    <walk from="778460311#1" to="-315658900#7" />
  </person>
  <person id="ped_55" depart="513.27" type="adult">
    <walk from="778460311#1" to="-315658900#7" />
  </person>
  <person id="ped_56" depart="545.42" type="adult">
    <walk from="778460311#1" to="-315658900#7" />
  </person>
  <person id="ped_57" depart="557.88" type="adult">
    <walk from="778460311#1" to="-315658900#7" />
  </person>
  <person id="ped_58" depart="578.33" type="adult">
    <walk from="778460311#1" to="-315658900#7" />
  </person>
  <person id="ped_59" depart="599.58" type="adult">
    <walk from="778460311#1" to="-315658900#7" />
  </person>
  <person id="ped_60" depart="601.66" type="elderly">
    <walk from="778460311#1" to="-315658900#7" />
  </person>
  <person id="ped_61" depart="611.99" type="adult">
    <walk from="778460311#1" to="-315658900#7" />
  </person>
  <person id="ped_62" depart="612.14" type="elderly">
    <walk from="778460311#1" to="-315658900#7" />
  </person>
  <person id="ped_63" depart="640.66" type="adult">
    <walk from="778460311#1" to="-315658900#7" />
  </person>
  <person id="ped_64" depart="647.98" type="elderly">
    <walk from="778460311#1" to="-315658900#7" />
  </person>
  <person id="ped_65" depart="649.97" type="elderly">
    <walk from="778460311#1" to="-315658900#7" />
  </person>
  <person id="ped_66" depart="660.96" type="adult">
    <walk from="778460311#1" to="-315658900#7" />
  </person>
  <person id="ped_67" depart="663.37" type="adult">
    <walk from="778460311#1" to="-315658900#7" />
  </person>
  <person id="ped_68" depart="671.88" type="adult">
    <walk from="778460311#1" to="-315658900#7" />
  </person>
  <person id="ped_69" depart="673.37" type="adult">
    <walk from="778460311#1" to="-315658900#7" />
  </person>
  <person id="ped_70" depart="677.52" type="adult">
    <walk from="778460311#1" to="-315658900#7" />
  </person>
  <person id="ped_71" depart="677.64" type="adult">
    <walk from="778460311#1" to="-315658900#7" />
  </person>
  <person id="ped_72" depart="684.24" type="adult">
    <walk from="778460311#1" to="-315658900#7" />
  </person>
  <person id="ped_73" depart="689.78" type="adult">
    <walk from="778460311#1" to="-315658900#7" />
  </person>
  <person id="ped_74" depart="690.09" type="elderly">
    <walk from="778460311#1" to="-315658900#7" />
  </person>
  <person id="ped_75" depart="695.85" type="adult">
    <walk from="778460311#1" to="-315658900#7" />
  </person>
  <person id="ped_76" depart="726.68" type="adult">
    <walk from="778460311#1" to="-315658900#7" />
  </person>
  <person id="ped_77" depart="728.38" type="adult">
    <walk from="778460311#1" to="-315658900#7" />
  </person>
  <person id="ped_78" depart="729.15" type="adult">
    <walk from="778460311#1" to="-315658900#7" />
  </person>
  <person id="ped_79" depart="740.87" type="adult">
    <walk from="778460311#1" to="-315658900#7" />
  </person>
  <person id="ped_80" depart="761.46" type="adult">
    <walk from="778460311#1" to="-315658900#7" />
  </person>
  <person id="ped_81" depart="771.59" type="adult">
    <walk from="778460311#1" to="-315658900#7" />
  </person>
  <person id="ped_82" depart="828.99" type="adult">
    <walk from="778460311#1" to="-315658900#7" />
  </person>
  <person id="ped_83" depart="844.20" type="elderly">
    <walk from="778460311#1" to="-315658900#7" />
  </person>
  <person id="ped_84" depart="850.67" type="adult">
    <walk from="778460311#1" to="-315658900#7" />
  </person>
  <person id="ped_85" depart="876.20" type="adult">
    <walk from="778460311#1" to="-315658900#7" />
  </person>
  <person id="ped_86" depart="877.94" type="adult">
    <walk from="778460311#1" to="-315658900#7" />
  </person>
  <person id="ped_87" depart="904.35" type="adult">
    <walk from="778460311#1" to="-315658900#7" />
  </person>
  <person id="ped_88" depart="910.47" type="adult">
    <walk from="778460311#1" to="-315658900#7" />
  </person>
  <person id="ped_89" depart="915.56" type="adult">
    <walk from="778460311#1" to="-315658900#7" />
  </person>
  <person id="ped_90" depart="923.84" type="adult">
    <walk from="778460311#1" to="-315658900#7" />
  </person>
  <person id="ped_91" depart="927.01" type="elderly">
    <walk from="778460311#1" to="-315658900#7" />
  </person>
  <person id="ped_92" depart="944.65" type="adult">
    <walk from="778460311#1" to="-315658900#7" />
  </person>
  <person id="ped_93" depart="956.00" type="adult">
    <walk from="778460311#1" to="-315658900#7" />
  </person>
  <person id="ped_94" depart="958.44" type="adult">
    <walk from="778460311#1" to="-315658900#7" />
  </person>
  <person id="ped_95" depart="967.61" type="elderly">
    <walk from="778460311#1" to="-315658900#7" />
  </person>
  <person id="ped_96" depart="974.64" type="elderly">
    <walk from="778460311#1" to="-315658900#7" />
  </person>
  <person id="ped_97" depart="984.11" type="elderly">
    <walk from="778460311#1" to="-315658900#7" />
  </person>
  <person id="ped_98" depart="985.86" type="adult">
    <walk from="778460311#1" to="-315658900#7" />
  </person>
  <person id="ped_99" depart="987.82" type="elderly">
    <walk from="778460311#1" to="-315658900#7" />
  </person>
  <person id="ped_100" depart="992.90" type="elderly">
    <walk from="778460311#1" to="-315658900#7" />
  </person>
  <person id="ped_101" depart="1022.26" type="elderly">
    <walk from="778460311#1" to="-315658900#7" />
  </person>
  <person id="ped_102" depart="1023.61" type="adult">
    <walk from="778460311#1" to="-315658900#7" />
  </person>
  <person id="ped_103" depart="1025.13" type="adult">
    <walk from="778460311#1" to="-315658900#7" />
  </person>
  <person id="ped_104" depart="1042.05" type="elderly">
    <walk from="778460311#1" to="-315658900#7" />
  </person>
  <person id="ped_105" depart="1045.39" type="adult">
    <walk from="778460311#1" to="-315658900#7" />
  </person>
  <person id="ped_106" depart="1047.52" type="adult">
    <walk from="778460311#1" to="-315658900#7" />
  </person>
  <person id="ped_107" depart="1054.03" type="elderly">
    <walk from="778460311#1" to="-315658900#7" />
  </person>
  <person id="ped_108" depart="1078.78" type="elderly">
    <walk from="778460311#1" to="-315658900#7" />
  </person>
  <person id="ped_109" depart="1086.22" type="elderly">
    <walk from="778460311#1" to="-315658900#7" />
  </person>
  <person id="ped_110" depart="1131.40" type="adult">
    <walk from="778460311#1" to="-315658900#7" />
  </person>
  <person id="ped_111" depart="1136.78" type="adult">
    <walk from="778460311#1" to="-315658900#7" />
  </person>
  <person id="ped_112" depart="1163.59" type="adult">
    <walk from="778460311#1" to="-315658900#7" />
  </person>
  <person id="ped_113" depart="1200.37" type="adult">
    <walk from="778460311#1" to="-315658900#7" />
  </person>
  <person id="ped_114" depart="1227.25" type="adult">
    <walk from="778460311#1" to="-315658900#7" />
  </person>
  <person id="ped_115" depart="1229.83" type="elderly">
    <walk from="778460311#1" to="-315658900#7" />
  </person>
  <person id="ped_116" depart="1232.94" type="adult">
    <walk from="778460311#1" to="-315658900#7" />
  </person>
  <person id="ped_117" depart="1258.97" type="adult">
    <walk from="778460311#1" to="-315658900#7" />
  </person>
  <person id="ped_118" depart="1281.24" type="elderly">
    <walk from="778460311#1" to="-315658900#7" />
  </person>
  <person id="ped_119" depart="1296.84" type="elderly">
    <walk from="778460311#1" to="-315658900#7" />
  </person>
  <person id="ped_120" depart="1297.12" type="elderly">
    <walk from="778460311#1" to="-315658900#7" />
  </person>
  <person id="ped_121" depart="1302.80" type="elderly">
    <walk from="778460311#1" to="-315658900#7" />
  </person>
  <person id="ped_122" depart="1319.90" type="adult">
    <walk from="778460311#1" to="-315658900#7" />
  </person>
  <person id="ped_123" depart="1326.71" type="elderly">
    <walk from="778460311#1" to="-315658900#7" />
  </person>
  <person id="ped_124" depart="1328.55" type="elderly">
    <walk from="778460311#1" to="-315658900#7" />
  </person>
  <person id="ped_125" depart="1333.98" type="adult">
    <walk from="778460311#1" to="-315658900#7" />
  </person>
  <person id="ped_126" depart="1346.66" type="adult">
    <walk from="778460311#1" to="-315658900#7" />
  </person>
  <person id="ped_127" depart="1357.25" type="adult">
    <walk from="778460311#1" to="-315658900#7" />
  </person>
  <person id="ped_128" depart="1359.53" type="adult">
    <walk from="778460311#1" to="-315658900#7" />
  </person>
  <person id="ped_129" depart="1387.42" type="adult">
    <walk from="778460311#1" to="-315658900#7" />
  </person>
  <person id="ped_130" depart="1388.20" type="adult">
    <walk from="778460311#1" to="-315658900#7" />
  </person>
  <person id="ped_131" depart="1388.61" type="elderly">
    <walk from="778460311#1" to="-315658900#7" />
  </person>
  <person id="ped_132" depart="1397.87" type="elderly">
    <walk from="778460311#1" to="-315658900#7" />
  </person>
  <person id="ped_133" depart="1401.02" type="adult">
    <walk from="778460311#1" to="-315658900#7" />
  </person>
  <person id="ped_134" depart="1401.89" type="adult">
    <walk from="778460311#1" to="-315658900#7" />
  </person>
  <person id="ped_135" depart="1417.42" type="adult">
    <walk from="778460311#1" to="-315658900#7" />
  </person>
  <person id="ped_136" depart="1426.52" type="elderly">
    <walk from="778460311#1" to="-315658900#7" />
  </person>
  <person id="ped_137" depart="1445.87" type="adult">
    <walk from="778460311#1" to="-315658900#7" />
  </person>
  <person id="ped_138" depart="1462.32" type="adult">
    <walk from="778460311#1" to="-315658900#7" />
  </person>
  <person id="ped_139" depart="1466.23" type="elderly">
    <walk from="778460311#1" to="-315658900#7" />
  </person>
  <person id="ped_140" depart="1509.82" type="adult">
    <walk from="778460311#1" to="-315658900#7" />
  </person>
  <person id="ped_141" depart="1528.03" type="adult">
    <walk from="778460311#1" to="-315658900#7" />
  </person>
  <person id="ped_142" depart="1529.38" type="elderly">
    <walk from="778460311#1" to="-315658900#7" />
  </person>
  <person id="ped_143" depart="1532.70" type="adult">
    <walk from="778460311#1" to="-315658900#7" />
  </person>
  <person id="ped_144" depart="1556.80" type="elderly">
    <walk from="778460311#1" to="-315658900#7" />
  </person>
  <person id="ped_145" depart="1557.22" type="adult">
    <walk from="778460311#1" to="-315658900#7" />
  </person>
  <person id="ped_146" depart="1561.12" type="elderly">
    <walk from="778460311#1" to="-315658900#7" />
  </person>
  <person id="ped_147" depart="1588.53" type="elderly">
    <walk from="778460311#1" to="-315658900#7" />
  </person>
  <person id="ped_148" depart="1590.02" type="adult">
    <walk from="778460311#1" to="-315658900#7" />
  </person>
  <person id="ped_149" depart="1596.53" type="adult">
    <walk from="778460311#1" to="-315658900#7" />
  </person>
  <person id="ped_150" depart="1600.20" type="adult">
    <walk from="778460311#1" to="-315658900#7" />
  </person>
  <person id="ped_151" depart="1603.47" type="adult">
    <walk from="778460311#1" to="-315658900#7" />
  </person>
  <person id="ped_152" depart="1619.77" type="adult">
    <walk from="778460311#1" to="-315658900#7" />
  </person>
  <person id="ped_153" depart="1623.25" type="elderly">
    <walk from="778460311#1" to="-315658900#7" />
  </person>
  <person id="ped_154" depart="1638.00" type="adult">
    <walk from="778460311#1" to="-315658900#7" />
  </person>
  <person id="ped_155" depart="1644.53" type="adult">
    <walk from="778460311#1" to="-315658900#7" />
  </person>
  <person id="ped_156" depart="1656.17" type="elderly">
    <walk from="778460311#1" to="-315658900#7" />
  </person>
  <person id="ped_157" depart="1661.89" type="adult">
    <walk from="778460311#1" to="-315658900#7" />
  </person>
  <person id="ped_158" depart="1662.43" type="elderly">
    <walk from="778460311#1" to="-315658900#7" />
  </person>
  <person id="ped_159" depart="1664.62" type="adult">
    <walk from="778460311#1" to="-315658900#7" />
  </person>
  <person id="ped_160" depart="1668.65" type="adult">
    <walk from="778460311#1" to="-315658900#7" />
  </person>
  <person id="ped_161" depart="1671.74" type="elderly">
    <walk from="778460311#1" to="-315658900#7" />
  </person>
  <person id="ped_162" depart="1673.57" type="adult">
    <walk from="778460311#1" to="-315658900#7" />
  </person>
  <person id="ped_163" depart="1677.74" type="adult">
    <walk from="778460311#1" to="-315658900#7" />
  </person>
  <person id="ped_164" depart="1688.86" type="elderly">
    <walk from="778460311#1" to="-315658900#7" />
  </person>
  <person id="ped_165" depart="1693.94" type="adult">
    <walk from="778460311#1" to="-315658900#7" />
  </person>
  <person id="ped_166" depart="1705.20" type="adult">
    <walk from="778460311#1" to="-315658900#7" />
  </person>
  <person id="ped_167" depart="1717.78" type="adult">
    <walk from="778460311#1" to="-315658900#7" />
  </person>
  <person id="ped_168" depart="1746.87" type="elderly">
    <walk from="778460311#1" to="-315658900#7" />
  </person>
  <person id="ped_169" depart="1749.65" type="adult">
    <walk from="778460311#1" to="-315658900#7" />
  </person>
  <person id="ped_170" depart="1777.33" type="adult">
    <walk from="778460311#1" to="-315658900#7" />
  </person>
  <person id="ped_171" depart="1786.37" type="adult">
    <walk from="778460311#1" to="-315658900#7" />
  </person>
  <person id="ped_172" depart="1794.36" type="elderly">
    <walk from="778460311#1" to="-315658900#7" />
  </person>
  <person id="ped_173" depart="1795.90" type="adult">
    <walk from="778460311#1" to="-315658900#7" />
  </person>
  <person id="ped_174" depart="1797.39" type="adult">
    <walk from="778460311#1" to="-315658900#7" />
  </person>
</routes>