<?xml version="1.0" encoding="UTF-8"?>

<!-- generated on 2026-04-15 23:23:34.689154 by Eclipse SUMO randomTrips.py v1.26.0
<configuration>
    <net-file value="/Users/junlee/Desktop/2026-1/js/result/report_top12_seed4_2h/sumo_nets/cw_6428/network.net.xml"/>
    <output-trip-file value="/Users/junlee/Desktop/2026-1/js/result/report_top12_seed4_2h/sumo_nets/cw_6428/routes_seed45.trips.xml"/>
    <route-file value="/Users/junlee/Desktop/2026-1/js/result/report_top12_seed4_2h/sumo_nets/cw_6428/routes_seed45.rou.xml"/>
    <vehicle-class value="passenger"/>
    <seed value="45"/>
    <end value="1800.0"/>
    <period value="6.525383107718954"/>
</configuration>
-->

<!-- generated on 2026-04-15T23:23:34.638503+09:00 by Eclipse SUMO duarouter 1.26.0
<duarouterConfiguration xmlns:xsi="http://www.w3.org/2001/XMLSchema-instance" xsi:noNamespaceSchemaLocation="http://sumo.dlr.de/xsd/duarouterConfiguration.xsd">

    <input>
        <net-file value="/Users/junlee/Desktop/2026-1/js/result/report_top12_seed4_2h/sumo_nets/cw_6428/network.net.xml"/>
        <route-files value="/Users/junlee/Desktop/2026-1/js/result/report_top12_seed4_2h/sumo_nets/cw_6428/routes_seed45.trips.xml"/>
    </input>

    <output>
        <output-file value="/Users/junlee/Desktop/2026-1/js/result/report_top12_seed4_2h/sumo_nets/cw_6428/routes_seed45.rou.xml"/>
        <alternatives-output value="NUL"/>
    </output>

    <time>
        <begin value="0.0"/>
        <end value="1800.0"/>
    </time>

    <report>
        <no-warnings value="true"/>
        <ignore-errors value="true"/>
        <no-step-log value="true"/>
    </report>

</duarouterConfiguration>
-->

<routes xmlns:xsi="http://www.w3.org/2001/XMLSchema-instance" xsi:noNamespaceSchemaLocation="http://sumo.dlr.de/xsd/routes_file.xsd">
    <vType id="passenger" vClass="passenger"/>
    <vehicle id="0" type="passenger" depart="0.00">
        <route edges="-464459668#1 -464459668#0 243542154#2 -318747850#1 -464461045 243542154#1"/>
    </vehicle>
    <vehicle id="1" type="passenger" depart="6.53">
        <route edges="-315658896#4 464459667 315658900#3 315658900#4 315658900#5 -464459668#2 -464459668#1 -464459668#0 243542154#2 -318747850#1 -464461045"/>
    </vehicle>
    <vehicle id="2" type="passenger" depart="13.05">
        <route edges="-464459668#2 -464459668#1 -464459668#0 -243542154#1 464461045 318747850#1 -243542154#2 464459668#0 464459668#1 464459668#2 -315658900#5 -315658900#4 -315658900#3 -315658900#2 -315658900#1"/>
    </vehicle>
    <vehicle id="3" type="passenger" depart="19.58">
        <route edges="-315658900#6 -464459668#2 -464459668#1 -464459668#0 243542154#2 -318747850#1"/>
    </vehicle>
    <vehicle id="4" type="passenger" depart="26.10">
        <route edges="384030398 1379887973#0 1379887973#1 1339697074#1 244399270 37399713#1 37399713#2 37399713#3 244399271#1 394102601 773060732#0 773060732#1 773060732#2 773060732#3"/>
    </vehicle>
    <vehicle id="5" type="passenger" depart="32.63">
        <route edges="-315658896#5 -315658896#4"/>
    </vehicle>
    <vehicle id="6" type="passenger" depart="39.15">
        <route edges="464461045 318747850#1"/>
    </vehicle>
    <vehicle id="7" type="passenger" depart="45.68">
        <route edges="464459667 315658900#3"/>
    </vehicle>
    <vehicle id="8" type="passenger" depart="52.20">
        <route edges="315658900#2 -464459667 -315658896#3 -315658896#2 -315658896#1"/>
    </vehicle>
    <vehicle id="9" type="passenger" depart="58.73">
        <route edges="-243542154#2 464459668#0 464459668#1 464459668#2 -315658900#5 -315658900#4 -464459665 -315658896#4 464459667 315658900#3 315658900#4 315658900#5 -464459668#2 -464459668#1 -464459668#0 243542154#2"/>
    </vehicle>
    <vehicle id="10" type="passenger" depart="65.25">
        <route edges="315658900#5 -464459668#2 -464459668#1 -464459668#0"/>
    </vehicle>
    <vehicle id="11" type="passenger" depart="71.78">
        <route edges="-243542154#3 -243542154#2 464459668#0 464459668#1"/>
    </vehicle>
    <vehicle id="12" type="passenger" depart="78.30">
        <route edges="-464459668#2 -464459668#1 -464459668#0"/>
    </vehicle>
    <vehicle id="13" type="passenger" depart="84.83">
        <route edges="318747848#0 318747848#1 315658896#1 315658896#2 315658896#3 315658896#4 464459665 315658900#4 315658900#5 -464459668#2 -464459668#1 -464459668#0 243542154#2"/>
    </vehicle>
    <vehicle id="14" type="passenger" depart="91.36">
        <route edges="-315658900#4 -464459665 -315658896#4 464459667 315658900#3 315658900#4 315658900#5 -464459668#2 -464459668#1 -464459668#0 -243542154#1"/>
    </vehicle>
    <vehicle id="15" type="passenger" depart="97.88">
        <route edges="-315658896#4 464459667 315658900#3 315658900#4 315658900#5 315658900#6 315658900#7"/>
    </vehicle>
    <vehicle id="16" type="passenger" depart="104.41">
        <route edges="464459668#1 464459668#2 315658900#6 315658900#7"/>
    </vehicle>
    <vehicle id="17" type="passenger" depart="110.93">
        <route edges="315658896#2 315658896#3 315658896#4 464459665 315658900#4 315658900#5 315658900#6 315658900#7 315658900#8"/>
    </vehicle>
    <vehicle id="18" type="passenger" depart="117.46">
        <route edges="318747848#1 315658896#1 315658896#2 315658896#3 315658896#4"/>
    </vehicle>
    <vehicle id="19" type="passenger" depart="123.98">
        <route edges="464461045 318747850#1 -243542154#2 464459668#0 464459668#1 464459668#2 -315658900#5 -315658900#4 -464459665 -315658896#4 464459667 315658900#3"/>
    </vehicle>
    <vehicle id="20" type="passenger" depart="130.51">
        <route edges="315658900#2 -464459667 -315658896#3 -315658896#2 -315658896#1"/>
    </vehicle>
    <vehicle id="21" type="passenger" depart="137.03">
        <route edges="769488211 -464459668#1 -464459668#0 243542154#2 -318747850#1 -318747850#0"/>
    </vehicle>
    <vehicle id="22" type="passenger" depart="143.56">
        <route edges="-318747850#1 -464461045 243542154#1 464459668#0 464459668#1 464459668#2 -315658900#5 -315658900#4 -464459665 -315658896#4 -315658896#3 -315658896#2 -315658896#1 -315658896#0"/>
    </vehicle>
    <vehicle id="23" type="passenger" depart="150.08">
        <route edges="315658900#5 -464459668#2 -769488211"/>
    </vehicle>
    <vehicle id="24" type="passenger" depart="156.61">
        <route edges="318747850#0 318747850#1 -243542154#2 464459668#0 464459668#1 464459668#2 -315658900#5 -315658900#4 -464459665 -315658896#4 -315658896#3"/>
    </vehicle>
    <vehicle id="25" type="passenger" depart="163.13">
        <route edges="-315658896#5 464459665 315658900#4 315658900#5"/>
    </vehicle>
    <vehicle id="26" type="passenger" depart="169.66">
        <route edges="37399713#1 37399713#2 37399713#3 244399271#1 394102601 773060732#0 773060732#1 773060732#2 773060732#3"/>
    </vehicle>
    <vehicle id="27" type="passenger" depart="176.19">
        <route edges="464461045 318747850#1 -243542154#2 464459668#0 464459668#1 464459668#2 -315658900#5 -315658900#4 -464459665 -315658896#4 464459667 315658900#3 315658900#4 315658900#5"/>
    </vehicle>
    <vehicle id="28" type="passenger" depart="182.71">
        <route edges="315658900#5 -464459668#2 -464459668#1 -464459668#0 -243542154#1 464461045 318747850#1 -243542154#2 464459668#0 464459668#1 464459668#2 -315658900#5 -315658900#4 -315658900#3"/>
    </vehicle>
    <vehicle id="29" type="passenger" depart="189.24">
        <route edges="315658900#0 315658900#1 315658900#2 315658900#3 315658900#4 315658900#5 -464459668#2 -464459668#1 -464459668#0 243542154#2 -318747850#1 -464461045"/>
    </vehicle>
    <vehicle id="30" type="passenger" depart="195.76">
        <route edges="464459668#1 464459668#2 -315658900#5 -315658900#4 -464459665 -315658896#4 -315658896#3 -315658896#2 -315658896#1 -315658896#0"/>
    </vehicle>
    <vehicle id="31" type="passenger" depart="202.29">
        <route edges="315658896#0 315658896#1 315658896#2 315658896#3 464459667 315658900#3 -464459665"/>
    </vehicle>
    <vehicle id="32" type="passenger" depart="208.81">
        <route edges="315658896#3 315658896#4 464459665 315658900#4 315658900#5 -464459668#2 -464459668#1 -464459668#0 243542154#2 -318747850#1 -318747850#0"/>
    </vehicle>
    <vehicle id="33" type="passenger" depart="215.34">
        <route edges="243542154#2 -318747850#1 -464461045 243542154#1 464459668#0 464459668#1 464459668#2 -315658900#5 -315658900#4 -315658900#3 -315658900#2 -315658900#1 -315658900#0"/>
    </vehicle>
    <vehicle id="34" type="passenger" depart="221.86">
        <route edges="769488211 -464459668#1 -464459668#0 243542154#2 243542154#3"/>
    </vehicle>
    <vehicle id="35" type="passenger" depart="228.39">
        <route edges="315658896#2 315658896#3 315658896#4 464459665 315658900#4 315658900#5 -464459668#2 -464459668#1 -464459668#0 -243542154#1 464461045 318747850#1 -243542154#2 464459668#0 464459668#1 464459668#2"/>
    </vehicle>
    <vehicle id="36" type="passenger" depart="234.91">
        <route edges="315658896#2 315658896#3 464459667 315658900#3"/>
    </vehicle>
    <vehicle id="37" type="passenger" depart="241.44">
        <route edges="315658900#5 -464459668#2 -464459668#1 -464459668#0 -243542154#1"/>
    </vehicle>
    <vehicle id="38" type="passenger" depart="247.96">
        <route edges="315658896#4 464459665 -315658900#3 -464459667 -315658896#3 -315658896#2 -315658896#1 -315658896#0"/>
    </vehicle>
    <vehicle id="39" type="passenger" depart="254.49">
        <route edges="-315658900#5 -315658900#4 -315658900#3 -315658900#2 -315658900#1 -315658900#0"/>
    </vehicle>
    <vehicle id="40" type="passenger" depart="261.02">
        <route edges="318747850#0 318747850#1 -243542154#2 464459668#0 464459668#1 -769488211"/>
    </vehicle>
    <vehicle id="41" type="passenger" depart="267.54">
        <route edges="-464459668#2 -464459668#1 -464459668#0 -243542154#1 464461045 318747850#1 -243542154#2 464459668#0 464459668#1 464459668#2 -315658900#5 -315658900#4 -315658900#3 -315658900#2 -315658900#1 -315658900#0"/>
    </vehicle>
    <vehicle id="42" type="passenger" depart="274.07">
        <route edges="464459668#0 464459668#1"/>
    </vehicle>
    <vehicle id="43" type="passenger" depart="280.59">
        <route edges="1339697074#1 244399270 37399713#1 37399713#2 37399713#3"/>
    </vehicle>
    <vehicle id="44" type="passenger" depart="287.12">
        <route edges="464459668#1 464459668#2 315658900#6 315658900#7 315658900#8"/>
    </vehicle>
    <vehicle id="45" type="passenger" depart="293.64">
        <route edges="-315658896#5 464459665 -315658900#3 -315658900#2 -315658900#1"/>
    </vehicle>
    <vehicle id="46" type="passenger" depart="300.17">
        <route edges="-243542154#2 464459668#0 464459668#1 464459668#2 -315658900#5 -315658900#4 -464459665 -315658896#4 -315658896#3 -315658896#2 -315658896#1 -315658896#0"/>
    </vehicle>
    <vehicle id="47" type="passenger" depart="306.69">
        <route edges="318747850#0 318747850#1 -243542154#2 -243542154#1 -243542154#0"/>
    </vehicle>
    <vehicle id="48" type="passenger" depart="313.22">
        <route edges="1379887973#0 1379887973#1 1339697074#1 244399270 37399713#1 37399713#2 37399713#3 244399271#1 394102601 773060732#0"/>
    </vehicle>
    <vehicle id="49" type="passenger" depart="319.74">
        <route edges="-315658900#7 -315658900#6 -315658900#5 -315658900#4 -464459665 -315658896#4 464459667"/>
    </vehicle>
    <vehicle id="50" type="passenger" depart="326.27">
        <route edges="243542154#2"/>
    </vehicle>
    <vehicle id="51" type="passenger" depart="332.79">
        <route edges="464459668#0 464459668#1 464459668#2 -315658900#5 -315658900#4 -464459665 -315658896#4 464459667 315658900#3 315658900#4"/>
    </vehicle>
    <vehicle id="52" type="passenger" depart="339.32">
        <route edges="-464459668#2 -464459668#1 -464459668#0 -243542154#1 464461045 318747850#1 -243542154#2 464459668#0 464459668#1 464459668#2 -315658900#5 -315658900#4 -464459665 -315658896#4 -315658896#3 -315658896#2 -315658896#1 -318747848#1"/>
    </vehicle>
    <vehicle id="53" type="passenger" depart="345.85">
        <route edges="-464459668#1 -464459668#0 -243542154#1 464461045 318747850#1 -243542154#2 464459668#0 464459668#1 464459668#2 315658900#6"/>
    </vehicle>
    <vehicle id="54" type="passenger" depart="352.37">
        <route edges="-464459668#1 -464459668#0 -243542154#1 464461045 318747850#1 -243542154#2 464459668#0 464459668#1 464459668#2 -315658900#5 -315658900#4 -464459665 -315658896#4 -315658896#3"/>
    </vehicle>
    <vehicle id="55" type="passenger" depart="358.90">
        <route edges="-318747850#1 -464461045 243542154#1 464459668#0 464459668#1"/>
    </vehicle>
    <vehicle id="56" type="passenger" depart="365.42">
        <route edges="243542154#1 243542154#2 -318747850#1 -318747850#0"/>
    </vehicle>
    <vehicle id="57" type="passenger" depart="371.95">
        <route edges="243542154#0 243542154#1 464459668#0 464459668#1 464459668#2 -315658900#5 -315658900#4 -464459665 -315658896#4 -315658896#3 -315658896#2 -315658896#1 -318747848#1"/>
    </vehicle>
    <vehicle id="58" type="passenger" depart="378.47">
        <route edges="-464461046 318747850#1 -243542154#2 464459668#0 464459668#1 464459668#2 315658900#6 315658900#7"/>
    </vehicle>
    <vehicle id="59" type="passenger" depart="385.00">
        <route edges="464459668#0 464459668#1 464459668#2 -315658900#5 -315658900#4 -464459665 -315658896#4 464459667 315658900#3 315658900#4 315658900#5 -464459668#2 -464459668#1 -464459668#0 243542154#2"/>
    </vehicle>
    <vehicle id="60" type="passenger" depart="391.52">
        <route edges="315658896#1 315658896#2 315658896#3 315658896#4 464459665 315658900#4 315658900#5 -464459668#2 -464459668#1 -464459668#0 -243542154#1"/>
    </vehicle>
    <vehicle id="61" type="passenger" depart="398.05">
        <route edges="318747848#1 315658896#1 315658896#2 315658896#3 315658896#4 464459665 315658900#4 315658900#5 -464459668#2 -464459668#1 -464459668#0 243542154#2"/>
    </vehicle>
    <vehicle id="62" type="passenger" depart="404.57">
        <route edges="384030398 464763971#2"/>
    </vehicle>
    <vehicle id="63" type="passenger" depart="411.10">
        <route edges="315658900#0 315658900#1 315658900#2 -464459667 -315658896#3 -315658896#2 -315658896#1 -318747848#1"/>
    </vehicle>
    <vehicle id="64" type="passenger" depart="417.62">
        <route edges="464459668#2 -315658900#5 -315658900#4"/>
    </vehicle>
    <vehicle id="65" type="passenger" depart="424.15">
        <route edges="-315658900#6 -315658900#5 -315658900#4 -464459665 -315658896#4 464459667 315658900#3"/>
    </vehicle>
    <vehicle id="66" type="passenger" depart="430.68">
        <route edges="464763971#2 1339697074#0 1339697074#1 244399270 37399713#1 37399713#2 37399713#3 244399271#1 394102601"/>
    </vehicle>
    <vehicle id="67" type="passenger" depart="437.20">
        <route edges="464763971#0 1379887973#0 1379887973#1 1339697074#1 244399270 37399713#1 37399713#2 37399713#3 244399271#1 394102601 773060732#0 773060732#1 773060732#2 773060732#3"/>
    </vehicle>
    <vehicle id="68" type="passenger" depart="443.73">
        <route edges="1379887973#0 1379887973#1 1339697074#1 244399270 37399713#1 37399713#2 37399713#3 244399271#1 773060731 -775222468#2 -775222468#1"/>
    </vehicle>
    <vehicle id="69" type="passenger" depart="450.25">
        <route edges="1339697075#0 1339697075#1 1339697074#0 1339697074#1 244399270 37399713#1"/>
    </vehicle>
    <vehicle id="70" type="passenger" depart="456.78">
        <route edges="464459668#1 464459668#2 -315658900#5 -315658900#4 -315658900#3 -464459667"/>
    </vehicle>
    <vehicle id="71" type="passenger" depart="463.30">
        <route edges="-315658900#3 -464459667"/>
    </vehicle>
    <vehicle id="72" type="passenger" depart="469.83">
        <route edges="318747848#1 315658896#1 315658896#2 315658896#3 315658896#4 464459665 315658900#4 315658900#5 -464459668#2 -464459668#1 -464459668#0 243542154#2 -318747850#1 -464461045"/>
    </vehicle>
    <vehicle id="73" type="passenger" depart="476.35">
        <route edges="-315658900#3 -315658900#2"/>
    </vehicle>
    <vehicle id="74" type="passenger" depart="482.88">
        <route edges="318747850#0 318747850#1 -243542154#2 464459668#0 464459668#1 464459668#2 -315658900#5"/>
    </vehicle>
    <vehicle id="75" type="passenger" depart="489.40">
        <route edges="-315658896#4 464459667 315658900#3 315658900#4 315658900#5 -464459668#2 -464459668#1 -464459668#0 -243542154#1 464461045 318747850#1 -243542154#2 464459668#0 464459668#1 464459668#2 -315658900#5"/>
    </vehicle>
    <vehicle id="76" type="passenger" depart="495.93">
        <route edges="243542154#2 -318747850#1 -464461045 243542154#1 464459668#0 464459668#1 464459668#2 -315658900#5 -315658900#4 -464459665 -315658896#4 464459667 315658900#3 315658900#4 315658900#5 -464459668#2"/>
    </vehicle>
    <vehicle id="77" type="passenger" depart="502.45">
        <route edges="244399270 37399713#1 37399713#2 37399713#3 244399271#1 773060731 -775222468#2 -775222468#1 -775222468#0"/>
    </vehicle>
    <vehicle id="78" type="passenger" depart="508.98">
        <route edges="-315658900#6"/>
    </vehicle>
    <vehicle id="79" type="passenger" depart="515.51">
        <route edges="-464459668#1 -464459668#0 -243542154#1 -243542154#0"/>
    </vehicle>
    <vehicle id="80" type="passenger" depart="522.03">
        <route edges="-315658900#6 -315658900#5 -315658900#4 -315658900#3 -464459667 315658896#4"/>
    </vehicle>
    <vehicle id="81" type="passenger" depart="528.56">
        <route edges="315658896#0 315658896#1 315658896#2 315658896#3 315658896#4 464459665 315658900#4 315658900#5 -464459668#2 -464459668#1 -464459668#0 243542154#2"/>
    </vehicle>
    <vehicle id="82" type="passenger" depart="535.08">
        <route edges="315658896#3"/>
    </vehicle>
    <vehicle id="83" type="passenger" depart="541.61">
        <route edges="-315658900#8 -315658900#7 -315658900#6 -464459668#2 -464459668#1 -464459668#0 243542154#2 -318747850#1 464461046"/>
    </vehicle>
    <vehicle id="84" type="passenger" depart="548.13">
        <route edges="-464459668#2"/>
    </vehicle>
    <vehicle id="85" type="passenger" depart="554.66">
        <route edges="315658896#4 464459665 315658900#4 315658900#5 -464459668#2 -464459668#1 -464459668#0 -243542154#1 464461045 318747850#1 -243542154#2 464459668#0 464459668#1 464459668#2 -315658900#5 -315658900#4 -464459665 -315658896#4 464459667"/>
    </vehicle>
    <vehicle id="86" type="passenger" depart="561.18">
        <route edges="464763971#2 1339697074#0 1339697074#1 244399270 37399713#1"/>
    </vehicle>
    <vehicle id="87" type="passenger" depart="567.71">
        <route edges="464459668#2 -315658900#5 -315658900#4 -464459665 -315658896#4 464459667 315658900#3 315658900#4 315658900#5 -464459668#2 -464459668#1 -464459668#0 -243542154#1"/>
    </vehicle>
    <vehicle id="88" type="passenger" depart="574.23">
        <route edges="315658900#4 315658900#5 -464459668#2 -464459668#1 -464459668#0 -243542154#1 464461045 318747850#1 -243542154#2 464459668#0 464459668#1 464459668#2 -315658900#5 -315658900#4 -464459665 -315658896#4 -315658896#3 -315658896#2 -315658896#1"/>
    </vehicle>
    <vehicle id="89" type="passenger" depart="580.76">
        <route edges="315658896#3 464459667 -315658900#2 -315658900#1"/>
    </vehicle>
    <vehicle id="90" type="passenger" depart="587.28">
        <route edges="-315658896#4 464459667"/>
    </vehicle>
    <vehicle id="91" type="passenger" depart="593.81">
        <route edges="318747850#0 318747850#1 -243542154#2 464459668#0 464459668#1 464459668#2 315658900#6"/>
    </vehicle>
    <vehicle id="92" type="passenger" depart="600.34">
        <route edges="315658896#3 315658896#4 464459665 315658900#4 315658900#5"/>
    </vehicle>
    <vehicle id="93" type="passenger" depart="606.86">
        <route edges="464459668#2 -315658900#5 -315658900#4 -464459665 -315658896#4 464459667 315658900#3 315658900#4 315658900#5 -464459668#2 -464459668#1 -464459668#0 243542154#2 -318747850#1 -464461045 243542154#1"/>
    </vehicle>
    <vehicle id="94" type="passenger" depart="613.39">
        <route edges="318747850#0 318747850#1 -243542154#2 464459668#0 464459668#1 464459668#2 -315658900#5 -315658900#4"/>
    </vehicle>
    <vehicle id="95" type="passenger" depart="619.91">
        <route edges="464459665 315658900#4 315658900#5 -464459668#2 -464459668#1 -464459668#0 243542154#2"/>
    </vehicle>
    <vehicle id="96" type="passenger" depart="626.44">
        <route edges="315658896#2 315658896#3 315658896#4 464459665 315658900#4 315658900#5 -464459668#2 -464459668#1 -464459668#0 243542154#2 -318747850#1"/>
    </vehicle>
    <vehicle id="97" type="passenger" depart="632.96">
        <route edges="1339697075#1 1339697074#0 1339697074#1 244399270 37399713#1 37399713#2 37399713#3 244399271#1 773060731"/>
    </vehicle>
    <vehicle id="98" type="passenger" depart="639.49">
        <route edges="-243542154#3 -243542154#2 464459668#0 464459668#1 464459668#2 -315658900#5 -315658900#4 -464459665 -315658896#4 464459667"/>
    </vehicle>
    <vehicle id="99" type="passenger" depart="646.01">
        <route edges="-464459665 -315658896#4 464459667"/>
    </vehicle>
    <vehicle id="100" type="passenger" depart="652.54">
        <route edges="-464461045 243542154#1 464459668#0 464459668#1 464459668#2 -315658900#5 -315658900#4 -464459665 -315658896#4 -315658896#3 -315658896#2 -315658896#1 -318747848#1"/>
    </vehicle>
    <vehicle id="101" type="passenger" depart="659.06">
        <route edges="-464459668#1 -464459668#0 -243542154#1 464461045 318747850#1 -243542154#2 464459668#0 464459668#1 464459668#2 -315658900#5 -315658900#4"/>
    </vehicle>
    <vehicle id="102" type="passenger" depart="665.59">
        <route edges="243542154#1 243542154#2 -318747850#1 -464461045 -243542154#0"/>
    </vehicle>
    <vehicle id="103" type="passenger" depart="672.11">
        <route edges="-464459668#0 243542154#2"/>
    </vehicle>
    <vehicle id="104" type="passenger" depart="678.64">
        <route edges="1339697074#0 1339697074#1 244399270 37399713#1 37399713#2 37399713#3 244399271#1 394102601 773060732#0"/>
    </vehicle>
    <vehicle id="105" type="passenger" depart="685.17">
        <route edges="464459667 315658900#3 315658900#4 315658900#5 -464459668#2 -464459668#1 -464459668#0 -243542154#1 464461045"/>
    </vehicle>
    <vehicle id="106" type="passenger" depart="691.69">
        <route edges="-464459668#0 -243542154#1 464461045 318747850#1 -243542154#2 464459668#0 464459668#1 464459668#2 -315658900#5 -315658900#4 -315658900#3"/>
    </vehicle>
    <vehicle id="107" type="passenger" depart="698.22">
        <route edges="-464459668#0 -243542154#1 464461045 318747850#1 -243542154#2 464459668#0 464459668#1 464459668#2 -315658900#5 -315658900#4 -464459665 -315658896#4 -315658896#3 -315658896#2 -315658896#1 -318747848#1"/>
    </vehicle>
    <vehicle id="108" type="passenger" depart="704.74">
        <route edges="-315658896#1 -318747848#1"/>
    </vehicle>
    <vehicle id="109" type="passenger" depart="711.27">
        <route edges="464461045 318747850#1 -243542154#2 464459668#0 464459668#1 464459668#2 -315658900#5 -315658900#4 -464459665 -315658896#4 -315658896#3"/>
    </vehicle>
    <vehicle id="110" type="passenger" depart="717.79">
        <route edges="464461045 318747850#1 -243542154#2 -243542154#1 -243542154#0"/>
    </vehicle>
    <vehicle id="111" type="passenger" depart="724.32">
        <route edges="315658900#1 315658900#2 -464459667 -315658896#3 -315658896#2 -315658896#1"/>
    </vehicle>
    <vehicle id="112" type="passenger" depart="730.84">
        <route edges="-243542154#2 464459668#0 464459668#1 464459668#2 -315658900#5 -315658900#4 -315658900#3 -464459667 315658896#4 464459665"/>
    </vehicle>
    <vehicle id="113" type="passenger" depart="737.37">
        <route edges="464459668#0 464459668#1 464459668#2 -315658900#5 -315658900#4 -315658900#3 -315658900#2 -315658900#1"/>
    </vehicle>
    <vehicle id="114" type="passenger" depart="743.89">
        <route edges="-464461045 243542154#1 243542154#2 243542154#3"/>
    </vehicle>
    <vehicle id="115" type="passenger" depart="750.42">
        <route edges="-315658900#1"/>
    </vehicle>
    <vehicle id="116" type="passenger" depart="756.94">
        <route edges="-315658900#4 -464459665 -315658896#4 -315658896#3 -315658896#2 -315658896#1 -315658896#0"/>
    </vehicle>
    <vehicle id="117" type="passenger" depart="763.47">
        <route edges="-315658896#4 -315658896#3 -315658896#2 -315658896#1 -318747848#1"/>
    </vehicle>
    <vehicle id="118" type="passenger" depart="770.00">
        <route edges="-315658896#4 -315658896#3 -315658896#2 -315658896#1"/>
    </vehicle>
    <vehicle id="119" type="passenger" depart="776.52">
        <route edges="1339697074#1 244399270 37399713#1 37399713#2 37399713#3 244399271#1 773060731 -775222468#2 -775222468#1"/>
    </vehicle>
    <vehicle id="120" type="passenger" depart="783.05">
        <route edges="-315658900#6 -464459668#2"/>
    </vehicle>
    <vehicle id="121" type="passenger" depart="789.57">
        <route edges="315658900#0 315658900#1 315658900#2 315658900#3 -464459665 -315658896#4 464459667 -315658900#2 -315658900#1 -315658900#0"/>
    </vehicle>
    <vehicle id="122" type="passenger" depart="796.10">
        <route edges="-243542154#2 464459668#0 464459668#1 464459668#2 -315658900#5 -315658900#4 -464459665 -315658896#4 464459667 315658900#3 315658900#4 315658900#5 -464459668#2 -464459668#1 -464459668#0 243542154#2 -318747850#1"/>
    </vehicle>
    <vehicle id="123" type="passenger" depart="802.62">
        <route edges="-315658900#6 -464459668#2 -769488211"/>
    </vehicle>
    <vehicle id="124" type="passenger" depart="809.15">
        <route edges="-315658900#8 -315658900#7 -315658900#6 -464459668#2 -464459668#1 -464459668#0 243542154#2 -318747850#1 -318747850#0"/>
    </vehicle>
    <vehicle id="125" type="passenger" depart="815.67">
        <route edges="464459665 315658900#4 315658900#5 -464459668#2 -464459668#1 -464459668#0 243542154#2 -318747850#1 -464461045 243542154#1"/>
    </vehicle>
    <vehicle id="126" type="passenger" depart="822.20">
        <route edges="315658896#2 315658896#3 464459667 315658900#3 -464459665 -315658896#4 -315658896#3 -315658896#2"/>
    </vehicle>
    <vehicle id="127" type="passenger" depart="828.72">
        <route edges="394102601 773060732#0"/>
    </vehicle>
    <vehicle id="128" type="passenger" depart="835.25">
        <route edges="-464461045 243542154#1 464459668#0 464459668#1 464459668#2 -315658900#5 -315658900#4 -464459665 -315658896#4 464459667 315658900#3 315658900#4 315658900#5"/>
    </vehicle>
    <vehicle id="129" type="passenger" depart="841.77">
        <route edges="-464461046 318747850#1 -243542154#2 464459668#0 464459668#1 464459668#2 -315658900#5 -315658900#4 -464459665 -315658896#4 -315658896#3 -315658896#2"/>
    </vehicle>
    <vehicle id="130" type="passenger" depart="848.30">
        <route edges="-315658896#5 -315658896#4 464459667"/>
    </vehicle>
    <vehicle id="131" type="passenger" depart="854.83">
        <route edges="-315658900#6 -464459668#2 -464459668#1 -464459668#0 -243542154#1 464461045 318747850#1 -243542154#2 464459668#0 464459668#1"/>
    </vehicle>
    <vehicle id="132" type="passenger" depart="861.35">
        <route edges="-243542154#3 -243542154#2 464459668#0"/>
    </vehicle>
    <vehicle id="133" type="passenger" depart="867.88">
        <route edges="-315658900#5 -315658900#4 -464459665 315658896#5"/>
    </vehicle>
    <vehicle id="134" type="passenger" depart="874.40">
        <route edges="-315658896#5 464459665 -315658900#3"/>
    </vehicle>
    <vehicle id="135" type="passenger" depart="880.93">
        <route edges="315658900#2 315658900#3 315658900#4 315658900#5 -464459668#2 -464459668#1 -464459668#0 243542154#2 -318747850#1 -318747850#0"/>
    </vehicle>
    <vehicle id="136" type="passenger" depart="887.45">
        <route edges="-464461046 318747850#1 -243542154#2 464459668#0 464459668#1 464459668#2 -315658900#5 -315658900#4 -464459665 -315658896#4 464459667 315658900#3"/>
    </vehicle>
    <vehicle id="137" type="passenger" depart="893.98">
        <route edges="315658900#4 315658900#5 -464459668#2 -464459668#1 -464459668#0 243542154#2"/>
    </vehicle>
    <vehicle id="138" type="passenger" depart="900.50">
        <route edges="315658900#1 315658900#2 315658900#3"/>
    </vehicle>
    <vehicle id="139" type="passenger" depart="907.03">
        <route edges="-315658900#6 -464459668#2 -464459668#1 -464459668#0 -243542154#1"/>
    </vehicle>
    <vehicle id="140" type="passenger" depart="913.55">
        <route edges="-464459668#0 -243542154#1 464461045 318747850#1 -243542154#2 464459668#0 464459668#1 464459668#2 -315658900#5 -315658900#4 -315658900#3 -315658900#2"/>
    </vehicle>
    <vehicle id="141" type="passenger" depart="920.08">
        <route edges="315658896#4 464459665 315658900#4 315658900#5 -464459668#2 -464459668#1 -464459668#0 -243542154#1 464461045 318747850#1 -243542154#2 464459668#0 464459668#1 464459668#2 -315658900#5"/>
    </vehicle>
    <vehicle id="142" type="passenger" depart="926.60">
        <route edges="464459668#0 464459668#1 464459668#2 -315658900#5 -315658900#4 -315658900#3 -464459667"/>
    </vehicle>
    <vehicle id="143" type="passenger" depart="933.13">
        <route edges="-318747850#1 -464461045 243542154#1 464459668#0"/>
    </vehicle>
    <vehicle id="144" type="passenger" depart="939.66">
        <route edges="464461045 318747850#1 -243542154#2 464459668#0 464459668#1 464459668#2 -315658900#5 -315658900#4 -464459665 -315658896#4 -315658896#3 -315658896#2 -315658896#1 -318747848#1"/>
    </vehicle>
    <vehicle id="145" type="passenger" depart="946.18">