<?xml version="1.0" encoding="UTF-8"?>

<!-- generated on 2026-04-15 23:23:34.432285 by Eclipse SUMO randomTrips.py v1.26.0
<configuration>
    <net-file value="/Users/junlee/Desktop/2026-1/js/result/report_top12_seed4_2h/sumo_nets/cw_6428/network.net.xml"/>
    <output-trip-file value="/Users/junlee/Desktop/2026-1/js/result/report_top12_seed4_2h/sumo_nets/cw_6428/routes_seed45.trips.xml"/>
    <route-file value="/Users/junlee/Desktop/2026-1/js/result/report_top12_seed4_2h/sumo_nets/cw_6428/routes_seed45.rou.xml"/>
    <vehicle-class value="passenger"/>
    <seed value="45"/>
    <end value="1800.0"/>
    <period value="6.525383107718954"/>
</configuration>
-->

<routes xmlns:xsi="http://www.w3.org/2001/XMLSchema-instance" xsi:noNamespaceSchemaLocation="http://sumo.dlr.de/xsd/routes_file.xsd">
    <vType id="passenger" vClass="passenger"/>
    <trip id="0" depart="0.00" from="-464459668#1" to="243542154#1" type="passenger"/>
    <trip id="1" depart="6.53" from="-315658896#4" to="-464461045" type="passenger"/>
    <trip id="2" depart="13.05" from="-464459668#2" to="-315658900#1" type="passenger"/>
    <trip id="3" depart="19.58" from="-315658900#6" to="-318747850#1" type="passenger"/>
    <trip id="4" depart="26.10" from="384030398" to="773060732#3" type="passenger"/>
    <trip id="5" depart="32.63" from="-315658896#5" to="-315658896#4" type="passenger"/>
    <trip id="6" depart="39.15" from="464461045" to="318747850#1" type="passenger"/>
    <trip id="7" depart="45.68" from="464459667" to="315658900#3" type="passenger"/>
    <trip id="8" depart="52.20" from="315658900#2" to="-315658896#1" type="passenger"/>
    <trip id="9" depart="58.73" from="-243542154#2" to="243542154#2" type="passenger"/>
    <trip id="10" depart="65.25" from="315658900#5" to="-464459668#0" type="passenger"/>
    <trip id="11" depart="71.78" from="-243542154#3" to="464459668#1" type="passenger"/>
    <trip id="12" depart="78.30" from="-464459668#2" to="-464459668#0" type="passenger"/>
    <trip id="13" depart="84.83" from="318747848#0" to="243542154#2" type="passenger"/>
    <trip id="14" depart="91.36" from="-315658900#4" to="-243542154#1" type="passenger"/>
    <trip id="15" depart="97.88" from="-315658896#4" to="315658900#7" type="passenger"/>
    <trip id="16" depart="104.41" from="464459668#1" to="315658900#7" type="passenger"/>
    <trip id="17" depart="110.93" from="315658896#2" to="315658900#8" type="passenger"/>
    <trip id="18" depart="117.46" from="318747848#1" to="315658896#4" type="passenger"/>
    <trip id="19" depart="123.98" from="464461045" to="315658900#3" type="passenger"/>
    <trip id="20" depart="130.51" from="315658900#2" to="-315658896#1" type="passenger"/>
    <trip id="21" depart="137.03" from="769488211" to="-318747850#0" type="passenger"/>
    <trip id="22" depart="143.56" from="-318747850#1" to="-315658896#0" type="passenger"/>
    <trip id="23" depart="150.08" from="315658900#5" to="-769488211" type="passenger"/>
    <trip id="24" depart="156.61" from="318747850#0" to="-315658896#3" type="passenger"/>
    <trip id="25" depart="163.13" from="-315658896#5" to="315658900#5" type="passenger"/>
    <trip id="26" depart="169.66" from="37399713#1" to="773060732#3" type="passenger"/>
    <trip id="27" depart="176.19" from="464461045" to="315658900#5" type="passenger"/>
    <trip id="28" depart="182.71" from="315658900#5" to="-315658900#3" type="passenger"/>
    <trip id="29" depart="189.24" from="315658900#0" to="-464461045" type="passenger"/>
    <trip id="30" depart="195.76" from="464459668#1" to="-315658896#0" type="passenger"/>
    <trip id="31" depart="202.29" from="315658896#0" to="-464459665" type="passenger"/>
    <trip id="32" depart="208.81" from="315658896#3" to="-318747850#0" type="passenger"/>
    <trip id="33" depart="215.34" from="243542154#2" to="-315658900#0" type="passenger"/>
    <trip id="34" depart="221.86" from="769488211" to="243542154#3" type="passenger"/>
    <trip id="35" depart="228.39" from="315658896#2" to="464459668#2" type="passenger"/>
    <trip id="36" depart="234.91" from="315658896#2" to="315658900#3" type="passenger"/>
    <trip id="37" depart="241.44" from="315658900#5" to="-243542154#1" type="passenger"/>
    <trip id="38" depart="247.96" from="315658896#4" to="-315658896#0" type="passenger"/>
    <trip id="39" depart="254.49" from="-315658900#5" to="-315658900#0" type="passenger"/>
    <trip id="40" depart="261.02" from="318747850#0" to="-769488211" type="passenger"/>
    <trip id="41" depart="267.54" from="-464459668#2" to="-315658900#0" type="passenger"/>
    <trip id="42" depart="274.07" from="464459668#0" to="464459668#1" type="passenger"/>
    <trip id="43" depart="280.59" from="1339697074#1" to="37399713#3" type="passenger"/>
    <trip id="44" depart="287.12" from="464459668#1" to="315658900#8" type="passenger"/>
    <trip id="45" depart="293.64" from="-315658896#5" to="-315658900#1" type="passenger"/>
    <trip id="46" depart="300.17" from="-243542154#2" to="-315658896#0" type="passenger"/>
    <trip id="47" depart="306.69" from="318747850#0" to="-243542154#0" type="passenger"/>
    <trip id="48" depart="313.22" from="1379887973#0" to="773060732#0" type="passenger"/>
    <trip id="49" depart="319.74" from="-315658900#7" to="464459667" type="passenger"/>
    <trip id="50" depart="326.27" from="243542154#2" to="243542154#2" type="passenger"/>
    <trip id="51" depart="332.79" from="464459668#0" to="315658900#4" type="passenger"/>
    <trip id="52" depart="339.32" from="-464459668#2" to="-318747848#1" type="passenger"/>
    <trip id="53" depart="345.85" from="-464459668#1" to="315658900#6" type="passenger"/>
    <trip id="54" depart="352.37" from="-464459668#1" to="-315658896#3" type="passenger"/>
    <trip id="55" depart="358.90" from="-318747850#1" to="464459668#1" type="passenger"/>
    <trip id="56" depart="365.42" from="243542154#1" to="-318747850#0" type="passenger"/>
    <trip id="57" depart="371.95" from="243542154#0" to="-318747848#1" type="passenger"/>
    <trip id="58" depart="378.47" from="-464461046" to="315658900#7" type="passenger"/>
    <trip id="59" depart="385.00" from="464459668#0" to="243542154#2" type="passenger"/>
    <trip id="60" depart="391.52" from="315658896#1" to="-243542154#1" type="passenger"/>
    <trip id="61" depart="398.05" from="318747848#1" to="243542154#2" type="passenger"/>
    <trip id="62" depart="404.57" from="384030398" to="464763971#2" type="passenger"/>
    <trip id="63" depart="411.10" from="315658900#0" to="-318747848#1" type="passenger"/>
    <trip id="64" depart="417.62" from="464459668#2" to="-315658900#4" type="passenger"/>
    <trip id="65" depart="424.15" from="-315658900#6" to="315658900#3" type="passenger"/>
    <trip id="66" depart="430.68" from="464763971#2" to="394102601" type="passenger"/>
    <trip id="67" depart="437.20" from="464763971#0" to="773060732#3" type="passenger"/>
    <trip id="68" depart="443.73" from="1379887973#0" to="-775222468#1" type="passenger"/>
    <trip id="69" depart="450.25" from="1339697075#0" to="37399713#1" type="passenger"/>
    <trip id="70" depart="456.78" from="464459668#1" to="-464459667" type="passenger"/>
    <trip id="71" depart="463.30" from="-315658900#3" to="-464459667" type="passenger"/>
    <trip id="72" depart="469.83" from="318747848#1" to="-464461045" type="passenger"/>
    <trip id="73" depart="476.35" from="-315658900#3" to="-315658900#2" type="passenger"/>
    <trip id="74" depart="482.88" from="318747850#0" to="-315658900#5" type="passenger"/>
    <trip id="75" depart="489.40" from="-315658896#4" to="-315658900#5" type="passenger"/>
    <trip id="76" depart="495.93" from="243542154#2" to="-464459668#2" type="passenger"/>
    <trip id="77" depart="502.45" from="244399270" to="-775222468#0" type="passenger"/>
    <trip id="78" depart="508.98" from="-315658900#6" to="-315658900#6" type="passenger"/>
    <trip id="79" depart="515.51" from="-464459668#1" to="-243542154#0" type="passenger"/>
    <trip id="80" depart="522.03" from="-315658900#6" to="315658896#4" type="passenger"/>
    <trip id="81" depart="528.56" from="315658896#0" to="243542154#2" type="passenger"/>
    <trip id="82" depart="535.08" from="315658896#3" to="315658896#3" type="passenger"/>
    <trip id="83" depart="541.61" from="-315658900#8" to="464461046" type="passenger"/>
    <trip id="84" depart="548.13" from="-464459668#2" to="-464459668#2" type="passenger"/>
    <trip id="85" depart="554.66" from="315658896#4" to="464459667" type="passenger"/>
    <trip id="86" depart="561.18" from="464763971#2" to="37399713#1" type="passenger"/>
    <trip id="87" depart="567.71" from="464459668#2" to="-243542154#1" type="passenger"/>
    <trip id="88" depart="574.23" from="315658900#4" to="-315658896#1" type="passenger"/>
    <trip id="89" depart="580.76" from="315658896#3" to="-315658900#1" type="passenger"/>
    <trip id="90" depart="587.28" from="-315658896#4" to="464459667" type="passenger"/>
    <trip id="91" depart="593.81" from="318747850#0" to="315658900#6" type="passenger"/>
    <trip id="92" depart="600.34" from="315658896#3" to="315658900#5" type="passenger"/>
    <trip id="93" depart="606.86" from="464459668#2" to="243542154#1" type="passenger"/>
    <trip id="94" depart="613.39" from="318747850#0" to="-315658900#4" type="passenger"/>
    <trip id="95" depart="619.91" from="464459665" to="243542154#2" type="passenger"/>
    <trip id="96" depart="626.44" from="315658896#2" to="-318747850#1" type="passenger"/>
    <trip id="97" depart="632.96" from="1339697075#1" to="773060731" type="passenger"/>
    <trip id="98" depart="639.49" from="-243542154#3" to="464459667" type="passenger"/>
    <trip id="99" depart="646.01" from="-464459665" to="464459667" type="passenger"/>
    <trip id="100" depart="652.54" from="-464461045" to="-318747848#1" type="passenger"/>
    <trip id="101" depart="659.06" from="-464459668#1" to="-315658900#4" type="passenger"/>
    <trip id="102" depart="665.59" from="243542154#1" to="-243542154#0" type="passenger"/>
    <trip id="103" depart="672.11" from="-464459668#0" to="243542154#2" type="passenger"/>
    <trip id="104" depart="678.64" from="1339697074#0" to="773060732#0" type="passenger"/>
    <trip id="105" depart="685.17" from="464459667" to="464461045" type="passenger"/>
    <trip id="106" depart="691.69" from="-464459668#0" to="-315658900#3" type="passenger"/>
    <trip id="107" depart="698.22" from="-464459668#0" to="-318747848#1" type="passenger"/>
    <trip id="108" depart="704.74" from="-315658896#1" to="-318747848#1" type="passenger"/>
    <trip id="109" depart="711.27" from="464461045" to="-315658896#3" type="passenger"/>
    <trip id="110" depart="717.79" from="464461045" to="-243542154#0" type="passenger"/>
    <trip id="111" depart="724.32" from="315658900#1" to="-315658896#1" type="passenger"/>
    <trip id="112" depart="730.84" from="-243542154#2" to="464459665" type="passenger"/>
    <trip id="113" depart="737.37" from="464459668#0" to="-315658900#1" type="passenger"/>
    <trip id="114" depart="743.89" from="-464461045" to="243542154#3" type="passenger"/>
    <trip id="115" depart="750.42" from="-315658900#1" to="-315658900#1" type="passenger"/>
    <trip id="116" depart="756.94" from="-315658900#4" to="-315658896#0" type="passenger"/>
    <trip id="117" depart="763.47" from="-315658896#4" to="-318747848#1" type="passenger"/>
    <trip id="118" depart="770.00" from="-315658896#4" to="-315658896#1" type="passenger"/>
    <trip id="119" depart="776.52" from="1339697074#1" to="-775222468#1" type="passenger"/>
    <trip id="120" depart="783.05" from="-315658900#6" to="-464459668#2" type="passenger"/>
    <trip id="121" depart="789.57" from="315658900#0" to="-315658900#0" type="passenger"/>
    <trip id="122" depart="796.10" from="-243542154#2" to="-318747850#1" type="passenger"/>
    <trip id="123" depart="802.62" from="-315658900#6" to="-769488211" type="passenger"/>
    <trip id="124" depart="809.15" from="-315658900#8" to="-318747850#0" type="passenger"/>
    <trip id="125" depart="815.67" from="464459665" to="243542154#1" type="passenger"/>
    <trip id="126" depart="822.20" from="315658896#2" to="-315658896#2" type="passenger"/>
    <trip id="127" depart="828.72" from="394102601" to="773060732#0" type="passenger"/>
    <trip id="128" depart="835.25" from="-464461045" to="315658900#5" type="passenger"/>
    <trip id="129" depart="841.77" from="-464461046" to="-315658896#2" type="passenger"/>
    <trip id="130" depart="848.30" from="-315658896#5" to="464459667" type="passenger"/>
    <trip id="131" depart="854.83" from="-315658900#6" to="464459668#1" type="passenger"/>
    <trip id="132" depart="861.35" from="-243542154#3" to="464459668#0" type="passenger"/>
    <trip id="133" depart="867.88" from="-315658900#5" to="315658896#5" type="passenger"/>
    <trip id="134" depart="874.40" from="-315658896#5" to="-315658900#3" type="passenger"/>
    <trip id="135" depart="880.93" from="315658900#2" to="-318747850#0" type="passenger"/>
    <trip id="136" depart="887.45" from="-464461046" to="315658900#3" type="passenger"/>
    <trip id="137" depart="893.98" from="315658900#4" to="243542154#2" type="passenger"/>
    <trip id="138" depart="900.50" from="315658900#1" to="315658900#3" type="passenger"/>
    <trip id="139" depart="907.03" from="-315658900#6" to="-243542154#1" type="passenger"/>
    <trip id="140" depart="913.55" from="-464459668#0" to="-315658900#2" type="passenger"/>
    <trip id="141" depart="920.08" from="315658896#4" to="-315658900#5" type="passenger"/>
    <trip id="142" depart="926.60" from="464459668#0" to="-464459667" type="passenger"/>
    <trip id="143" depart="933.13" from="-318747850#1" to="464459668#0" type="passenger"/>
    <trip id="144" depart="939.66" from="464461045" to="-318747848#1" type="passenger"/>
    <trip id="145" depart="946.18" from="1379887973#0" to="-775222468#0" type="passenger"/>
    <trip id="146" depart="952.71" from="464763971#2" to="-775222468#2" type="passenger"/>
    <trip id="147" depart="959.23" from="-315658900#4" to="-315658896#4" type="passenger"/>
    <trip id="148" depart="965.76" from="-315658900#5" to="464459668#1" type="passenger"/>
    <trip id="149" depart="972.28" from="315658900#3" to="-464461045" type="passenger"/>
    <trip id="150" depart="978.81" from="-464459667" to="243542154#2" type="passenger"/>
    <trip id="151" depart="985.33" from="315658900#3" to="-243542154#1" type="passenger"/>
    <trip id="152" depart="991.86" from="464459667" to="-315658896#2" type="passenger"/>
    <trip id="153" depart="998.38" from="315658896#2" to="-315658896#4" type="passenger"/>
    <trip id="154" depart="1004.91" from="318747848#1" to="318747850#1" type="passenger"/>
    <trip id="155" depart="1011.43" from="-464459668#1" to="-315658896#1" type="passenger"/>
    <trip id="156" depart="1017.96" from="315658896#3" to="-464459665" type="passenger"/>
    <trip id="157" depart="1024.49" from="-464459668#0" to="-315658896#1" type="passenger"/>
    <trip id="158" depart="1031.01" from="315658900#5" to="464461046" type="passenger"/>
    <trip id="159" depart="1037.54" from="318747848#0" to="-464459668#2" type="passenger"/>
    <trip id="160" depart="1044.06" from="-315658900#8" to="-315658900#0" type="passenger"/>
    <trip id="161" depart="1050.59" from="315658900#1" to="464459668#0" type="passenger"/>
    <trip id="162" depart="1057.11" from="243542154#0" to="315658900#5" type="passenger"/>
    <trip id="163" depart="1063.64" from="243542154#2" to="315658896#4" type="passenger"/>
    <trip id="164" depart="1070.16" from="-315658900#5" to="-318747848#1" type="passenger"/>
    <trip id="165" depart="1076.69" from="464459667" to="-464459668#2" type="passenger"/>
    <trip id="166" depart="1083.21" from="-315658900#7" to="315658900#3" type="passenger"/>
    <trip id="167" depart="1089.74" from="-243542154#2" to="-318747850#1" type="passenger"/>
    <trip id="168" depart="1096.26" from="464459667" to="464459668#1" type="passenger"/>
    <trip id="169" depart="1102.79" from="-464459668#1" to="243542154#2" type="passenger"/>
    <trip id="170" depart="1109.32" from="318747850#0" to="-315658896#3" type="passenger"/>
    <trip id="171" depart="1115.84" from="464461045" to="315658900#5" type="passenger"/>
    <trip id="172" depart="1122.37" from="243542154#0" to="-243542154#2" type="passenger"/>
    <trip id="173" depart="1128.89" from="-315658900#5" to="-464459668#0" type="passenger"/>
    <trip id="174" depart="1135.42" from="464459668#0" to="-464461045" type="passenger"/>
    <trip id="175" depart="1141.94" from="315658896#3" to="315658900#8" type="passenger"/>
    <trip id="176" depart="1148.47" from="-464459665" to="-315658900#3" type="passenger"/>
    <trip id="177" depart="1154.99" from="315658900#2" to="-318747848#1" type="passenger"/>
    <trip id="178" depart="1161.52" from="464763971#0" to="464763971#2" type="passenger"/>
    <trip id="179" depart="1168.04" from="-315658896#5" to="-315658900#1" type="passenger"/>
    <trip id="180" depart="1174.57" from="315658896#1" to="315658900#3" type="passenger"/>
    <trip id="181" depart="1181.09" from="-243542154#1" to="315658900#7" type="passenger"/>
    <trip id="182" depart="1187.62" from="243542154#0" to="315658900#6" type="passenger"/>
    <trip id="183" depart="1194.15" from="464459668#1" to="464459668#1" type="passenger"/>
    <trip id="184" depart="1200.67" from="384030398" to="773060732#3" type="passenger"/>
    <trip id="185" depart="1207.20" from="-315658900#8" to="315658896#5" type="passenger"/>
    <trip id="186" depart="1213.72" from="-243542154#3" to="464461045" type="passenger"/>
    <trip id="187" depart="1220.25" from="-464459665" to="464461046" type="passenger"/>
    <trip id="188" depart="1226.77" from="-243542154#2" to="-318747848#0" type="passenger"/>
    <trip id="189" depart="1233.30" from="-315658900#4" to="-318747848#0" type="passenger"/>
    <trip id="190" depart="1239.82" from="464763971#0" to="37399713#2" type="passenger"/>
    <trip id="191" depart="1246.35" from="-464459665" to="-318747848#0" type="passenger"/>
    <trip id="192" depart="1252.87" from="315658896#1" to="-315658900#0" type="passenger"/>
    <trip id="193" depart="1259.40" from="-464459668#2" to="-315658900#4" type="passenger"/>
    <trip id="194" depart="1265.92" from="464461045" to="243542154#2" type="passenger"/>
    <trip id="195" depart="1272.45" from="-464763971#2" to="773060732#2" type="passenger"/>
    <trip id="196" depart="1278.98" from="315658896#4" to="243542154#3" type="passenger"/>
    <trip id="197" depart="1285.50" from="-315658900#7" to="-464461045" type="passenger"/>
    <trip id="198" depart="1292.03" from="-315658900#6" to="-464459668#0" type="passenger"/>
    <trip id="199" depart="1298.55" from="-315658896#4" to="-464459668#0" type="passenger"/>
    <trip id="200" depart="1305.08" from="315658896#3" to="-464461045" type="passenger"/>
    <trip id="201" depart="1311.60" from="318747850#1" to="318747850#1" type="passenger"/>
    <trip id="202" depart="1318.13" from="-243542154#1" to="315658900#5" type="passenger"/>
    <trip id="203" depart="1324.65" from="-243542154#3" to="464459665" type="passenger"/>
    <trip id="204" depart="1331.18" from="315658896#0" to="-315658896#3" type="passenger"/>
    <trip id="205" depart="1337.70" from="318747850#1" to="-315658896#3" type="passenger"/>
    <trip id="206" depart="1344.23" from="243542154#0" to="-464461045" type="passenger"/>
    <trip id="207" depart="1350.75" from="-464461046" to="-315658900#2" type="passenger"/>
    <trip id="208" depart="1357.28" from="315658900#4" to="315658900#5" type="passenger"/>
    <trip id="209" depart="1363.81" from="775222468#0" to="773060732#0" type="passenger"/>
    <trip id="210" depart="1370.33" from="-315658900#3" to="-315658900#5" type="passenger"/>
    <trip id="211" depart="1376.86" from="-315658900#7" to="-315658900#3" type="passenger"/>
    <trip id="212" depart="1383.38" from="-315658896#5" to="315658900#4" type="passenger"/>
    <trip id="213" depart="1389.91" from="315658900#3" to="464459668#0" type="passenger"/>
    <trip id="214" depart="1396.43" from="-315658896#2" to="-315658896#0" type="passenger"/>
    <trip id="215" depart="1402.96" from="315658896#0" to="243542154#1" type="passenger"/>
    <trip id="216" depart="1409.48" from="243542154#1" to="315658900#3" type="passenger"/>
    <trip id="217" depart="1416.01" from="1339697074#0" to="773060732#0" type="passenger"/>
    <trip id="218" depart="1422.53" from="-315658896#5" to="-464459668#0" type="passenger"/>
    <trip id="219" depart="1429.06" from="318747848#0" to="315658896#5" type="passenger"/>
    <trip id="220" depart="1435.58" from="318747850#0" to="315658896#4" type="passenger"/>
    <trip id="221" depart="1442.11" from="-464459668#2" to="-315658900#0" type="passenger"/>
    <trip id="222" depart="1448.64" from="-315658900#4" to="315658900#8" type="passenger"/>
    <trip id="223" depart="1455.16" from="318747848#1" to="243542154#3" type="passenger"/>
    <trip id="224" depart="1461.69" from="243542154#2" to="315658900#8" type="passenger"/>
    <trip id="225" depart="1468.21" from="-464461046" to="-464459667" type="passenger"/>
    <trip id="226" depart="1474.74" from="769488211" to="-243542154#2" type="passenger"/>
    <trip id="227" depart="1481.26" from="1339697075#0" to="-384030398" type="passenger"/>
    <trip id="228" depart="1487.79" from="464459667" to="-315658896#2" type="passenger"/>
    <trip id="229" depart="1494.31" from="315658900#1" to="464459668#2" type="passenger"/>
    <trip id="230" depart="1500.84" from="-243542154#1" to="-315658896#3" type="passenger"/>
    <trip id="231" depart="1507.36" from="-464459665" to="-464459668#1" type="passenger"/>
    <trip id="232" depart="1513.89" from="315658896#1" to="315658900#5" type="passenger"/>
    <trip id="233" depart="1520.41" from="384030398" to="37399713#1" type="passenger"/>
    <trip id="234" depart="1526.94" from="-315658896#2" to="-318747848#0" type="passenger"/>
    <trip id="235" depart="1533.47" from="318747848#1" to="-315658900#3" type="passenger"/>
    <trip id="236" depart="1539.99" from="-464461046" to="-315658900#3" type="passenger"/>
    <trip id="237" depart="1546.52" from="464459665" to="-464459665" type="passenger"/>
    <trip id="238" depart="1553.04" from="-315658900#8" to="-243542154#2" type="passenger"/>
    <trip id="239" depart="1559.57" from="315658896#1" to="318747850#1" type="passenger"/>
    <trip id="240" depart="1566.09" from="1379887973#0" to="1339697074#1" type="passenger"/>
    <trip id="241" depart="1572.62" from="37399713#3" to="773060731" type="passenger"/>
    <trip id="242" depart="1579.14" from="-464459668#0" to="464459668#1" type="passenger"/>
    <trip id="243" depart="1585.67" from="464459668#0" to="-318747848#0" type="passenger"/>
    <trip id="244" depart="1592.19" from="318747848#0" to="-243542154#2" type="passenger"/>
    <trip id="245" depart="1598.72" from="315658896#0" to="315658900#5" type="passenger"/>
    <trip id="246" depart="1605.24" from="-315658900#5" to="464459668#1" type="passenger"/>
    <trip id="247" depart="1611.77" from="-315658896#4" to="464461046" type="passenger"/>
    <trip id="248" depart="1618.30" from="-315658900#8" to="-464459665" type="passenger"/>
    <trip id="249" depart="1624.82" from="315658900#2" to="315658900#5" type="passenger"/>
    <trip id="250" depart="1631.35" from="-315658900#5" to="315658900#8" type="passenger"/>
    <trip id="251" depart="1637.87" from="315658896#1" to="-464459668#0" type="passenger"/>
    <trip id="252" depart="1644.40" from="-315658900#8" to="-315658896#3" type="passenger"/>
    <trip id="253" depart="1650.92" from="243542154#1" to="464461045" type="passenger"/>
    <trip id="254" depart="1657.45" from="315658896#2" to="-315658900#2" type="passenger"/>
    <trip id="255" depart="1663.97" from="-315658900#5" to="-464459668#1" type="passenger"/>
    <trip id="256" depart="1670.50" from="-464459667" to="-315658900#3" type="passenger"/>
    <trip id="257" depart="1677.02" from="-315658900#8" to="243542154#1" type="passenger"/>
    <trip id="258" depart="1683.55" from="464459665" to="315658896#4" type="passenger"/>
    <trip id="259" depart="1690.07" from="464461045" to="464459668#2" type="passenger"/>
    <trip id="260" depart="1696.60" from="315658900#4" to="464461046" type="passenger"/>
    <trip id="261" depart="1703.12" from="-315658900#5" to="464459667" type="passenger"/>
    <trip id="262" depart="1709.65" from="315658900#1" to="315658900#8" type="passenger"/>
    <trip id="263" depart="1716.18" from="-315658900#3" to="-315658896#2" type="passenger"/>
    <trip id="264" depart="1722.70" from="464459668#1" to="243542154#3" type="passenger"/>
    <trip id="265" depart="1729.23" from="-318747850#1" to="-315658900#0" type="passenger"/>
    <trip id="266" depart="1735.75" from="243542154#0" to="-318747850#1" type="passenger"/>
    <trip id="267" depart="1742.28" from="-318747850#1" to="-315658900#0" type="passenger"/>
    <trip id="268" depart="1748.80" from="315658900#0" to="-318747848#0" type="passenger"/>
    <trip id="269" depart="1755.33" from="318747850#1" to="464459667" type="passenger"/>
    <trip id="270" depart="1761.85" from="464763971#0" to="244399270" type="passenger"/>
    <trip id="271" depart="1768.38" from="-464459668#0" to="-315658900#5" type="passenger"/>
    <trip id="272" depart="1774.90" from="315658900#5" to="-318747848#0" type="passenger"/>
    <trip id="273" depart="1781.43" from="-315658900#5" to="464459665" type="passenger"/>
    <trip id="274" depart="1787.95" from="315658900#3" to="243542154#1" type="passenger"/>
    <trip id="275" depart="1794.48" from="318747848#1" to="464461046" type="passenger"/>
</routes>
