<?xml version='1.0' encoding='utf-8'?>
<routes>
  <vType id="adult" vClass="pedestrian" minGap="0.25" width="0.5" length="0.25" maxSpeed="1.5" speedDev="0.1" />
  <vType id="elderly" vClass="pedestrian" minGap="0.25" width="0.5" length="0.25" maxSpeed="1.13" speedDev="0.15" color="255,0,0" />
  <person id="ped_0" depart="0.53" type="elderly">
    <walk from="778460311#1" to="-315658900#7" />
  </person>
  <person id="ped_1" depart="14.18" type="elderly">
    <walk from="778460311#1" to="-315658900#7" />
  </person>
  <person id="ped_2" depart="20.89" type="elderly">
    <walk from="778460311#1" to="-315658900#7" />
  </person>
  <person id="ped_3" depart="21.24" type="elderly">
    <walk from="778460311#1" to="-315658900#7" />
  </person>
  <person id="ped_4" depart="23.69" type="adult">
    <walk from="778460311#1" to="-315658900#7" />
  </person>
  <person id="ped_5" depart="25.88" type="adult">
    <walk from="778460311#1" to="-315658900#7" />
  </person>
  <person id="ped_6" depart="26.94" type="adult">
    <walk from="778460311#1" to="-315658900#7" />
  </person>
  <person id="ped_7" depart="33.56" type="adult">
    <walk from="778460311#1" to="-315658900#7" />
  </person>
  <person id="ped_8" depart="40.78" type="adult">
    <walk from="778460311#1" to="-315658900#7" />
  </person>
  <person id="ped_9" depart="43.37" type="adult">
    <walk from="778460311#1" to="-315658900#7" />
  </person>
  <person id="ped_10" depart="46.97" type="elderly">
    <walk from="778460311#1" to="-315658900#7" />
  </person>
  <person id="ped_11" depart="58.07" type="adult">
    <walk from="778460311#1" to="-315658900#7" />
  </person>
  <person id="ped_12" depart="59.06" type="elderly">
    <walk from="778460311#1" to="-315658900#7" />
  </person>
  <person id="ped_13" depart="59.95" type="adult">
    <walk from="778460311#1" to="-315658900#7" />
  </person>
  <person id="ped_14" depart="61.38" type="adult">
    <walk from="778460311#1" to="-315658900#7" />
  </person>
  <person id="ped_15" depart="70.98" type="adult">
    <walk from="778460311#1" to="-315658900#7" />
  </person>
  <person id="ped_16" depart="90.07" type="adult">
    <walk from="778460311#1" to="-315658900#7" />
  </person>
  <person id="ped_17" depart="104.45" type="adult">
    <walk from="778460311#1" to="-315658900#7" />
  </person>
  <person id="ped_18" depart="121.95" type="adult">
    <walk from="778460311#1" to="-315658900#7" />
  </person>
  <person id="ped_19" depart="124.85" type="adult">
    <walk from="778460311#1" to="-315658900#7" />
  </person>
  <person id="ped_20" depart="134.73" type="elderly">
    <walk from="778460311#1" to="-315658900#7" />
  </person>
  <person id="ped_21" depart="136.65" type="adult">
    <walk from="778460311#1" to="-315658900#7" />
  </person>
  <person id="ped_22" depart="140.68" type="adult">
    <walk from="778460311#1" to="-315658900#7" />
  </person>
  <person id="ped_23" depart="142.41" type="elderly">
    <walk from="778460311#1" to="-315658900#7" />
  </person>
  <person id="ped_24" depart="146.04" type="adult">
    <walk from="778460311#1" to="-315658900#7" />
  </person>
  <person id="ped_25" depart="157.26" type="adult">
    <walk from="778460311#1" to="-315658900#7" />
  </person>
  <person id="ped_26" depart="161.51" type="elderly">
    <walk from="778460311#1" to="-315658900#7" />
  </person>
  <person id="ped_27" depart="169.22" type="adult">
    <walk from="778460311#1" to="-315658900#7" />
  </person>
  <person id="ped_28" depart="177.93" type="adult">
    <walk from="778460311#1" to="-315658900#7" />
  </person>
  <person id="ped_29" depart="186.86" type="elderly">
    <walk from="778460311#1" to="-315658900#7" />
  </person>
  <person id="ped_30" depart="187.96" type="adult">
    <walk from="778460311#1" to="-315658900#7" />
  </person>
  <person id="ped_31" depart="188.14" type="elderly">
    <walk from="778460311#1" to="-315658900#7" />
  </person>
  <person id="ped_32" depart="191.61" type="elderly">
    <walk from="778460311#1" to="-315658900#7" />
  </person>
  <person id="ped_33" depart="192.36" type="elderly">
    <walk from="778460311#1" to="-315658900#7" />
  </person>
  <person id="ped_34" depart="198.92" type="adult">
    <walk from="778460311#1" to="-315658900#7" />
  </person>
  <person id="ped_35" depart="200.39" type="adult">
    <walk from="778460311#1" to="-315658900#7" />
  </person>
  <person id="ped_36" depart="203.90" type="elderly">
    <walk from="778460311#1" to="-315658900#7" />
  </person>
  <person id="ped_37" depart="204.14" type="adult">
    <walk from="778460311#1" to="-315658900#7" />
  </person>
  <person id="ped_38" depart="210.62" type="adult">
    <walk from="778460311#1" to="-315658900#7" />
  </person>
  <person id="ped_39" depart="224.36" type="elderly">
    <walk from="778460311#1" to="-315658900#7" />
  </person>
  <person id="ped_40" depart="225.75" type="adult">
    <walk from="778460311#1" to="-315658900#7" />
  </person>
  <person id="ped_41" depart="228.46" type="adult">
    <walk from="778460311#1" to="-315658900#7" />
  </person>
  <person id="ped_42" depart="237.72" type="elderly">
    <walk from="778460311#1" to="-315658900#7" />
  </person>
  <person id="ped_43" depart="243.18" type="adult">
    <walk from="778460311#1" to="-315658900#7" />
  </person>
  <person id="ped_44" depart="244.36" type="elderly">
    <walk from="778460311#1" to="-315658900#7" />
  </person>
  <person id="ped_45" depart="245.97" type="adult">
    <walk from="778460311#1" to="-315658900#7" />
  </person>
  <person id="ped_46" depart="248.67" type="adult">
    <walk from="778460311#1" to="-315658900#7" />
  </person>
  <person id="ped_47" depart="262.13" type="adult">
    <walk from="778460311#1" to="-315658900#7" />
  </person>
  <person id="ped_48" depart="263.31" type="adult">
    <walk from="778460311#1" to="-315658900#7" />
  </person>
  <person id="ped_49" depart="265.36" type="adult">
    <walk from="778460311#1" to="-315658900#7" />
  </person>
  <person id="ped_50" depart="279.69" type="elderly">
    <walk from="778460311#1" to="-315658900#7" />
  </person>
  <person id="ped_51" depart="296.86" type="adult">
    <walk from="778460311#1" to="-315658900#7" />
  </person>
  <person id="ped_52" depart="302.92" type="adult">
    <walk from="778460311#1" to="-315658900#7" />
  </person>
  <person id="ped_53" depart="305.12" type="elderly">
    <walk from="778460311#1" to="-315658900#7" />
  </person>
  <person id="ped_54" depart="310.76" type="adult">
    <walk from="778460311#1" to="-315658900#7" />
  </person>
  <person id="ped_55" depart="313.81" type="adult">
    <walk from="778460311#1" to="-315658900#7" />
  </person>
  <person id="ped_56" depart="313.94" type="adult">
    <walk from="778460311#1" to="-315658900#7" />
  </person>
  <person id="ped_57" depart="326.60" type="adult">
    <walk from="778460311#1" to="-315658900#7" />
  </person>
  <person id="ped_58" depart="326.63" type="adult">
    <walk from="778460311#1" to="-315658900#7" />
  </person>
  <person id="ped_59" depart="342.98" type="adult">
    <walk from="778460311#1" to="-315658900#7" />
  </person>
  <person id="ped_60" depart="346.83" type="elderly">
    <walk from="778460311#1" to="-315658900#7" />
  </person>
  <person id="ped_61" depart="348.00" type="adult">
    <walk from="778460311#1" to="-315658900#7" />
  </person>
  <person id="ped_62" depart="360.03" type="adult">
    <walk from="778460311#1" to="-315658900#7" />
  </person>
  <person id="ped_63" depart="361.66" type="adult">
    <walk from="778460311#1" to="-315658900#7" />
  </person>
  <person id="ped_64" depart="362.78" type="adult">
    <walk from="778460311#1" to="-315658900#7" />
  </person>
  <person id="ped_65" depart="372.94" type="adult">
    <walk from="778460311#1" to="-315658900#7" />
  </person>
  <person id="ped_66" depart="377.07" type="adult">
    <walk from="778460311#1" to="-315658900#7" />
  </person>
  <person id="ped_67" depart="380.56" type="adult">
    <walk from="778460311#1" to="-315658900#7" />
  </person>
  <person id="ped_68" depart="389.87" type="elderly">
    <walk from="778460311#1" to="-315658900#7" />
  </person>
  <person id="ped_69" depart="393.12" type="adult">
    <walk from="778460311#1" to="-315658900#7" />
  </person>
  <person id="ped_70" depart="396.67" type="adult">
    <walk from="778460311#1" to="-315658900#7" />
  </person>
  <person id="ped_71" depart="397.82" type="elderly">
    <walk from="778460311#1" to="-315658900#7" />
  </person>
  <person id="ped_72" depart="397.83" type="elderly">
    <walk from="778460311#1" to="-315658900#7" />
  </person>
  <person id="ped_73" depart="398.54" type="elderly">
    <walk from="778460311#1" to="-315658900#7" />
  </person>
  <person id="ped_74" depart="399.72" type="adult">
    <walk from="778460311#1" to="-315658900#7" />
  </person>
  <person id="ped_75" depart="402.61" type="adult">
    <walk from="778460311#1" to="-315658900#7" />
  </person>
  <person id="ped_76" depart="402.99" type="adult">
    <walk from="778460311#1" to="-315658900#7" />
  </person>
  <person id="ped_77" depart="408.45" type="adult">
    <walk from="778460311#1" to="-315658900#7" />
  </person>
  <person id="ped_78" depart="414.29" type="elderly">
    <walk from="778460311#1" to="-315658900#7" />
  </person>
  <person id="ped_79" depart="417.11" type="adult">
    <walk from="778460311#1" to="-315658900#7" />
  </person>
  <person id="ped_80" depart="421.44" type="adult">
    <walk from="778460311#1" to="-315658900#7" />
  </person>
  <person id="ped_81" depart="423.81" type="elderly">
    <walk from="778460311#1" to="-315658900#7" />
  </person>
  <person id="ped_82" depart="427.02" type="adult">
    <walk from="778460311#1" to="-315658900#7" />
  </person>
  <person id="ped_83" depart="428.08" type="elderly">
    <walk from="778460311#1" to="-315658900#7" />
  </person>
  <person id="ped_84" depart="432.34" type="adult">
    <walk from="778460311#1" to="-315658900#7" />
  </person>
  <person id="ped_85" depart="433.63" type="adult">
    <walk from="778460311#1" to="-315658900#7" />
  </person>
  <person id="ped_86" depart="435.61" type="adult">
    <walk from="778460311#1" to="-315658900#7" />
  </person>
  <person id="ped_87" depart="442.56" type="adult">
    <walk from="778460311#1" to="-315658900#7" />
  </person>
  <person id="ped_88" depart="446.07" type="adult">
    <walk from="778460311#1" to="-315658900#7" />
  </person>
  <person id="ped_89" depart="447.34" type="elderly">
    <walk from="778460311#1" to="-315658900#7" />
  </person>
  <person id="ped_90" depart="449.57" type="adult">
    <walk from="778460311#1" to="-315658900#7" />
  </person>
  <person id="ped_91" depart="453.18" type="adult">
    <walk from="778460311#1" to="-315658900#7" />
  </person>
  <person id="ped_92" depart="453.97" type="adult">
    <walk from="778460311#1" to="-315658900#7" />
  </person>
  <person id="ped_93" depart="457.93" type="adult">
    <walk from="778460311#1" to="-315658900#7" />
  </person>
  <person id="ped_94" depart="463.88" type="adult">
    <walk from="778460311#1" to="-315658900#7" />
  </person>
  <person id="ped_95" depart="464.60" type="adult">
    <walk from="778460311#1" to="-315658900#7" />
  </person>
  <person id="ped_96" depart="464.77" type="adult">
    <walk from="778460311#1" to="-315658900#7" />
  </person>
  <person id="ped_97" depart="465.77" type="adult">
    <walk from="778460311#1" to="-315658900#7" />
  </person>
  <person id="ped_98" depart="469.80" type="elderly">
    <walk from="778460311#1" to="-315658900#7" />
  </person>
  <person id="ped_99" depart="473.09" type="elderly">
    <walk from="778460311#1" to="-315658900#7" />
  </person>
  <person id="ped_100" depart="473.13" type="elderly">
    <walk from="778460311#1" to="-315658900#7" />
  </person>
  <person id="ped_101" depart="475.56" type="elderly">
    <walk from="778460311#1" to="-315658900#7" />
  </person>
  <person id="ped_102" depart="479.41" type="elderly">
    <walk from="778460311#1" to="-315658900#7" />
  </person>
  <person id="ped_103" depart="487.22" type="elderly">
    <walk from="778460311#1" to="-315658900#7" />
  </person>
  <person id="ped_104" depart="495.58" type="adult">
    <walk from="778460311#1" to="-315658900#7" />
  </person>
  <person id="ped_105" depart="496.12" type="adult">
    <walk from="778460311#1" to="-315658900#7" />
  </person>
  <person id="ped_106" depart="496.45" type="adult">
    <walk from="778460311#1" to="-315658900#7" />
  </person>
  <person id="ped_107" depart="506.84" type="adult">
    <walk from="778460311#1" to="-315658900#7" />
  </person>
  <person id="ped_108" depart="507.29" type="adult">
    <walk from="778460311#1" to="-315658900#7" />
  </person>
  <person id="ped_109" depart="508.40" type="adult">
    <walk from="778460311#1" to="-315658900#7" />
  </person>
  <person id="ped_110" depart="509.75" type="adult">
    <walk from="778460311#1" to="-315658900#7" />
  </person>
  <person id="ped_111" depart="513.55" type="elderly">
    <walk from="778460311#1" to="-315658900#7" />
  </person>
  <person id="ped_112" depart="518.01" type="adult">
    <walk from="778460311#1" to="-315658900#7" />
  </person>
  <person id="ped_113" depart="524.05" type="elderly">
    <walk from="778460311#1" to="-315658900#7" />
  </person>
  <person id="ped_114" depart="528.94" type="adult">
    <walk from="778460311#1" to="-315658900#7" />
  </person>
  <person id="ped_115" depart="530.59" type="adult">
    <walk from="778460311#1" to="-315658900#7" />
  </person>
  <person id="ped_116" depart="532.86" type="adult">
    <walk from="778460311#1" to="-315658900#7" />
  </person>
  <person id="ped_117" depart="532.94" type="adult">
    <walk from="778460311#1" to="-315658900#7" />
  </person>
  <person id="ped_118" depart="538.92" type="adult">
    <walk from="778460311#1" to="-315658900#7" />
  </person>
  <person id="ped_119" depart="540.59" type="adult">
    <walk from="778460311#1" to="-315658900#7" />
  </person>
  <person id="ped_120" depart="546.39" type="adult">
    <walk from="778460311#1" to="-315658900#7" />
  </person>
  <person id="ped_121" depart="556.57" type="adult">
    <walk from="778460311#1" to="-315658900#7" />
  </person>
  <person id="ped_122" depart="569.39" type="elderly">
    <walk from="778460311#1" to="-315658900#7" />
  </person>
  <person id="ped_123" depart="573.34" type="adult">
    <walk from="778460311#1" to="-315658900#7" />
  </person>
  <person id="ped_124" depart="578.20" type="adult">
    <walk from="778460311#1" to="-315658900#7" />
  </person>
  <person id="ped_125" depart="580.95" type="adult">
    <walk from="778460311#1" to="-315658900#7" />
  </person>
  <person id="ped_126" depart="581.34" type="adult">
    <walk from="778460311#1" to="-315658900#7" />
  </person>
  <person id="ped_127" depart="590.76" type="elderly">
    <walk from="778460311#1" to="-315658900#7" />
  </person>
  <person id="ped_128" depart="604.86" type="adult">
    <walk from="778460311#1" to="-315658900#7" />
  </person>
  <person id="ped_129" depart="609.49" type="adult">
    <walk from="778460311#1" to="-315658900#7" />
  </person>
  <person id="ped_130" depart="611.28" type="elderly">
    <walk from="778460311#1" to="-315658900#7" />
  </person>
  <person id="ped_131" depart="611.46" type="adult">
    <walk from="778460311#1" to="-315658900#7" />
  </person>
  <person id="ped_132" depart="612.23" type="adult">
    <walk from="778460311#1" to="-315658900#7" />
  </person>
  <person id="ped_133" depart="617.38" type="elderly">
    <walk from="778460311#1" to="-315658900#7" />
  </person>
  <person id="ped_134" depart="619.25" type="elderly">
    <walk from="778460311#1" to="-315658900#7" />
  </person>
  <person id="ped_135" depart="622.09" type="adult">
    <walk from="778460311#1" to="-315658900#7" />
  </person>
  <person id="ped_136" depart="626.47" type="adult">
    <walk from="778460311#1" to="-315658900#7" />
  </person>
  <person id="ped_137" depart="634.62" type="adult">
    <walk from="778460311#1" to="-315658900#7" />
  </person>
  <person id="ped_138" depart="641.53" type="elderly">
    <walk from="778460311#1" to="-315658900#7" />
  </person>
  <person id="ped_139" depart="643.77" type="adult">
    <walk from="778460311#1" to="-315658900#7" />
  </person>
  <person id="ped_140" depart="644.13" type="adult">
    <walk from="778460311#1" to="-315658900#7" />
  </person>
  <person id="ped_141" depart="654.16" type="adult">
    <walk from="778460311#1" to="-315658900#7" />
  </person>
  <person id="ped_142" depart="655.89" type="elderly">
    <walk from="778460311#1" to="-315658900#7" />
  </person>
  <person id="ped_143" depart="663.13" type="adult">
    <walk from="778460311#1" to="-315658900#7" />
  </person>
  <person id="ped_144" depart="671.47" type="adult">
    <walk from="778460311#1" to="-315658900#7" />
  </person>
  <person id="ped_145" depart="679.80" type="adult">
    <walk from="778460311#1" to="-315658900#7" />
  </person>
  <person id="ped_146" depart="683.52" type="adult">
    <walk from="778460311#1" to="-315658900#7" />
  </person>
  <person id="ped_147" depart="686.50" type="adult">
    <walk from="778460311#1" to="-315658900#7" />
  </person>
  <person id="ped_148" depart="692.47" type="elderly">
    <walk from="778460311#1" to="-315658900#7" />
  </person>
  <person id="ped_149" depart="692.48" type="adult">
    <walk from="778460311#1" to="-315658900#7" />
  </person>
  <person id="ped_150" depart="694.69" type="adult">
    <walk from="778460311#1" to="-315658900#7" />
  </person>
  <person id="ped_151" depart="698.37" type="elderly">
    <walk from="778460311#1" to="-315658900#7" />
  </person>
  <person id="ped_152" depart="701.74" type="elderly">
    <walk from="778460311#1" to="-315658900#7" />
  </person>
  <person id="ped_153" depart="702.99" type="adult">
    <walk from="778460311#1" to="-315658900#7" />
  </person>
  <person id="ped_154" depart="715.11" type="adult">
    <walk from="778460311#1" to="-315658900#7" />
  </person>
  <person id="ped_155" depart="723.39" type="adult">
    <walk from="778460311#1" to="-315658900#7" />
  </person>
  <person id="ped_156" depart="725.76" type="adult">
    <walk from="778460311#1" to="-315658900#7" />
  </person>
  <person id="ped_157" depart="731.03" type="adult">
    <walk from="778460311#1" to="-315658900#7" />
  </person>
  <person id="ped_158" depart="732.48" type="adult">
    <walk from="778460311#1" to="-315658900#7" />
  </person>
  <person id="ped_159" depart="735.91" type="adult">
    <walk from="778460311#1" to="-315658900#7" />
  </person>
  <person id="ped_160" depart="738.68" type="elderly">
    <walk from="778460311#1" to="-315658900#7" />
  </person>
  <person id="ped_161" depart="739.36" type="adult">
    <walk from="778460311#1" to="-315658900#7" />
  </person>
  <person id="ped_162" depart="747.83" type="adult">
    <walk from="778460311#1" to="-315658900#7" />
  </person>
  <person id="ped_163" depart="748.83" type="adult">
    <walk from="778460311#1" to="-315658900#7" />
  </person>
  <person id="ped_164" depart="758.63" type="adult">
    <walk from="778460311#1" to="-315658900#7" />
  </person>
  <person id="ped_165" depart="759.57" type="adult">
    <walk from="778460311#1" to="-315658900#7" />
  </person>
  <person id="ped_166" depart="768.78" type="adult">
    <walk from="778460311#1" to="-315658900#7" />
  </person>
  <person id="ped_167" depart="770.16" type="elderly">
    <walk from="778460311#1" to="-315658900#7" />
  </person>
  <person id="ped_168" depart="774.48" type="adult">
    <walk from="778460311#1" to="-315658900#7" />
  </person>
  <person id="ped_169" depart="775.14" type="elderly">
    <walk from="778460311#1" to="-315658900#7" />
  </person>
  <person id="ped_170" depart="776.81" type="elderly">
    <walk from="778460311#1" to="-315658900#7" />
  </person>
  <person id="ped_171" depart="776.85" type="adult">
    <walk from="778460311#1" to="-315658900#7" />
  </person>
  <person id="ped_172" depart="777.75" type="adult">
    <walk from="778460311#1" to="-315658900#7" />
  </person>
  <person id="ped_173" depart="779.47" type="adult">
    <walk from="778460311#1" to="-315658900#7" />
  </person>
  <person id="ped_174" depart="780.27" type="adult">
    <walk from="778460311#1" to="-315658900#7" />
  </person>
  <person id="ped_175" depart="781.53" type="adult">
    <walk from="778460311#1" to="-315658900#7" />
  </person>
  <person id="ped_176" depart="783.30" type="elderly">
    <walk from="778460311#1" to="-315658900#7" />
  </person>
  <person id="ped_177" depart="785.36" type="adult">
    <walk from="778460311#1" to="-315658900#7" />
  </person>
  <person id="ped_178" depart="785.83" type="elderly">
    <walk from="778460311#1" to="-315658900#7" />
  </person>
  <person id="ped_179" depart="786.72" type="adult">
    <walk from="778460311#1" to="-315658900#7" />
  </person>
  <person id="ped_180" depart="786.85" type="adult">
    <walk from="778460311#1" to="-315658900#7" />
  </person>
  <person id="ped_181" depart="796.66" type="elderly">
    <walk from="778460311#1" to="-315658900#7" />
  </person>
  <person id="ped_182" depart="798.57" type="adult">
    <walk from="778460311#1" to="-315658900#7" />
  </person>
  <person id="ped_183" depart="802.11" type="elderly">
    <walk from="778460311#1" to="-315658900#7" />
  </person>
  <person id="ped_184" depart="807.14" type="elderly">
    <walk from="778460311#1" to="-315658900#7" />
  </person>
  <person id="ped_185" depart="811.22" type="adult">
    <walk from="778460311#1" to="-315658900#7" />
  </person>
  <person id="ped_186" depart="811.83" type="adult">
    <walk from="778460311#1" to="-315658900#7" />
  </person>
  <person id="ped_187" depart="813.30" type="adult">
    <walk from="778460311#1" to="-315658900#7" />
  </person>
  <person id="ped_188" depart="816.59" type="adult">
    <walk from="778460311#1" to="-315658900#7" />
  </person>
  <person id="ped_189" depart="825.81" type="adult">
    <walk from="778460311#1" to="-315658900#7" />
  </person>
  <person id="ped_190" depart="830.65" type="elderly">
    <walk from="778460311#1" to="-315658900#7" />
  </person>
  <person id="ped_191" depart="835.21" type="adult">
    <walk from="778460311#1" to="-315658900#7" />
  </person>
  <person id="ped_192" depart="835.22" type="elderly">
    <walk from="778460311#1" to="-315658900#7" />
  </person>
  <person id="ped_193" depart="835.81" type="adult">
    <walk from="778460311#1" to="-315658900#7" />
  </person>
  <person id="ped_194" depart="839.06" type="elderly">
    <walk from="778460311#1" to="-315658900#7" />
  </person>
  <person id="ped_195" depart="840.04" type="adult">
    <walk from="778460311#1" to="-315658900#7" />
  </person>
  <person id="ped_196" depart="842.60" type="adult">
    <walk from="778460311#1" to="-315658900#7" />
  </person>
  <person id="ped_197" depart="850.74" type="adult">
    <walk from="778460311#1" to="-315658900#7" />
  </person>
  <person id="ped_198" depart="856.11" type="adult">
    <walk from="778460311#1" to="-315658900#7" />
  </person>
  <person id="ped_199" depart="857.41" type="adult">
    <walk from="778460311#1" to="-315658900#7" />
  </person>
  <person id="ped_200" depart="858.74" type="elderly">
    <walk from="778460311#1" to="-315658900#7" />
  </person>
  <person id="ped_201" depart="859.63" type="elderly">
    <walk from="778460311#1" to="-315658900#7" />
  </person>
  <person id="ped_202" depart="864.06" type="adult">
    <walk from="778460311#1" to="-315658900#7" />
  </person>
  <person id="ped_203" depart="866.38" type="elderly">
    <walk from="778460311#1" to="-315658900#7" />
  </person>
  <person id="ped_204" depart="871.09" type="adult">
    <walk from="778460311#1" to="-315658900#7" />
  </person>
  <person id="ped_205" depart="880.49" type="adult">
    <walk from="778460311#1" to="-315658900#7" />
  </person>
  <person id="ped_206" depart="893.27" type="elderly">
    <walk from="778460311#1" to="-315658900#7" />
  </person>
  <person id="ped_207" depart="897.30" type="elderly">
    <walk from="778460311#1" to="-315658900#7" />
  </person>
  <person id="ped_208" depart="919.30" type="adult">
    <walk from="778460311#1" to="-315658900#7" />
  </person>
  <person id="ped_209" depart="919.96" type="adult">
    <walk from="778460311#1" to="-315658900#7" />
  </person>
  <person id="ped_210" depart="923.08" type="adult">
    <walk from="778460311#1" to="-315658900#7" />
  </person>
  <person id="ped_211" depart="929.37" type="adult">
    <walk from="778460311#1" to="-315658900#7" />
  </person>
  <person id="ped_212" depart="933.88" type="adult">
    <walk from="778460311#1" to="-315658900#7" />
  </person>
  <person id="ped_213" depart="945.33" type="adult">
    <walk from="778460311#1" to="-315658900#7" />
  </person>
  <person id="ped_214" depart="953.30" type="elderly">
    <walk from="778460311#1" to="-315658900#7" />
  </person>
  <person id="ped_215" depart="953.73" type="adult">
    <walk from="778460311#1" to="-315658900#7" />
  </person>
  <person id="ped_216" depart="955.68" type="elderly">
    <walk from="778460311#1" to="-315658900#7" />
  </person>
  <person id="ped_217" depart="961.88" type="adult">
    <walk from="778460311#1" to="-315658900#7" />
  </person>
  <person id="ped_218" depart="961.97" type="adult">
    <walk from="778460311#1" to="-315658900#7" />
  </person>
  <person id="ped_219" depart="966.83" type="adult">
    <walk from="778460311#1" to="-315658900#7" />
  </person>
  <person id="ped_220" depart="969.18" type="elderly">
    <walk from="778460311#1" to="-315658900#7" />
  </person>
  <person id="ped_221" depart="974.60" type="elderly">
    <walk from="778460311#1" to="-315658900#7" />
  </person>
  <person id="ped_222" depart="976.21" type="elderly">
    <walk from="778460311#1" to="-315658900#7" />
  </person>
  <person id="ped_223" depart="979.48" type="adult">
    <walk from="778460311#1" to="-315658900#7" />
  </person>
  <person id="ped_224" depart="984.96" type="elderly">
    <walk from="778460311#1" to="-315658900#7" />
  </person>
  <person id="ped_225" depart="997.21" type="adult">
    <walk from="778460311#1" to="-315658900#7" />
  </person>
  <person id="ped_226" depart="1006.98" type="elderly">
    <walk from="778460311#1" to="-315658900#7" />
  </person>
  <person id="ped_227" depart="1010.93" type="elderly">
    <walk from="778460311#1" to="-315658900#7" />
  </person>
  <person id="ped_228" depart="1015.89" type="adult">
    <walk from="778460311#1" to="-315658900#7" />
  </person>
  <person id="ped_229" depart="1020.57" type="adult">
    <walk from="778460311#1" to="-315658900#7" />
  </person>
  <person id="ped_230" depart="1021.11" type="adult">
    <walk from="778460311#1" to="-315658900#7" />
  </person>
  <person id="ped_231" depart="1023.93" type="adult">
    <walk from="778460311#1" to="-315658900#7" />
  </person>
  <person id="ped_232" depart="1031.79" type="elderly">
    <walk from="778460311#1" to="-315658900#7" />
  </person>
  <person id="ped_233" depart="1035.66" type="adult">
    <walk from="778460311#1" to="-315658900#7" />
  </person>
  <person id="ped_234" depart="1039.04" type="elderly">
    <walk from="778460311#1" to="-315658900#7" />
  </person>
  <person id="ped_235" depart="1046.97" type="elderly">
    <walk from="778460311#1" to="-315658900#7" />
  </person>
  <person id="ped_236" depart="1054.14" type="adult">
    <walk from="778460311#1" to="-315658900#7" />
  </person>
  <person id="ped_237" depart="1055.51" type="adult">
    <walk from="778460311#1" to="-315658900#7" />
  </person>
  <person id="ped_238" depart="1059.91" type="elderly">
    <walk from="778460311#1" to="-315658900#7" />
  </person>
  <person id="ped_239" depart="1061.06" type="adult">
    <walk from="778460311#1" to="-315658900#7" />
  </person>
  <person id="ped_240" depart="1064.42" type="elderly">
    <walk from="778460311#1" to="-315658900#7" />
  </person>
  <person id="ped_241" depart="1064.73" type="elderly">
    <walk from="778460311#1" to="-315658900#7" />
  </person>
  <person id="ped_242" depart="1066.86" type="adult">
    <walk from="778460311#1" to="-315658900#7" />
  </person>
  <person id="ped_243" depart="1076.45" type="elderly">
    <walk from="778460311#1" to="-315658900#7" />
  </person>
  <person id="ped_244" depart="1082.20" type="adult">
    <walk from="778460311#1" to="-315658900#7" />
  </person>
  <person id="ped_245" depart="1082.95" type="elderly">
    <walk from="778460311#1" to="-315658900#7" />
  </person>
  <person id="ped_246" depart="1083.64" type="adult">
    <walk from="778460311#1" to="-315658900#7" />
  </person>
  <person id="ped_247" depart="1086.43" type="elderly">
    <walk from="778460311#1" to="-315658900#7" />
  </person>
  <person id="ped_248" depart="1099.46" type="adult">
    <walk from="778460311#1" to="-315658900#7" />
  </person>
  <person id="ped_249" depart="1104.55" type="adult">
    <walk from="778460311#1" to="-315658900#7" />
  </person>
  <person id="ped_250" depart="1106.08" type="elderly">
    <walk from="778460311#1" to="-315658900#7" />
  </person>
  <person id="ped_251" depart="1106.70" type="adult">
    <walk from="778460311#1" to="-315658900#7" />
  </person>
  <person id="ped_252" depart="1106.91" type="adult">
    <walk from="778460311#1" to="-315658900#7" />
  </person>
  <person id="ped_253" depart="1116.29" type="adult">
    <walk from="778460311#1" to="-315658900#7" />
  </person>
  <person id="ped_254" depart="1117.39" type="adult">
    <walk from="778460311#1" to="-315658900#7" />
  </person>
  <person id="ped_255" depart="1119.98" type="adult">
    <walk from="778460311#1" to="-315658900#7" />
  </person>
  <person id="ped_256" depart="1124.88" type="elderly">
    <walk from="778460311#1" to="-315658900#7" />
  </person>
  <person id="ped_257" depart="1129.37" type="adult">