<?xml version='1.0' encoding='utf-8'?>
<routes>
  <vType id="adult" vClass="pedestrian" minGap="0.25" width="0.5" length="0.25" maxSpeed="1.5" speedDev="0.1" />
  <vType id="elderly" vClass="pedestrian" minGap="0.25" width="0.5" length="0.25" maxSpeed="1.13" speedDev="0.15" color="255,0,0" />
  <person id="ped_0" depart="13.38" type="elderly">
    <walk from="778460311#1" to="-315658900#7" />
  </person>
  <person id="ped_1" depart="14.13" type="elderly">
    <walk from="778460311#1" to="-315658900#7" />
  </person>
  <person id="ped_2" depart="17.99" type="adult">
    <walk from="778460311#1" to="-315658900#7" />
  </person>
  <person id="ped_3" depart="23.04" type="adult">
    <walk from="778460311#1" to="-315658900#7" />
  </person>
  <person id="ped_4" depart="32.69" type="elderly">
    <walk from="778460311#1" to="-315658900#7" />
  </person>
  <person id="ped_5" depart="36.33" type="adult">
    <walk from="778460311#1" to="-315658900#7" />
  </person>
  <person id="ped_6" depart="36.46" type="adult">
    <walk from="778460311#1" to="-315658900#7" />
  </person>
  <person id="ped_7" depart="37.07" type="adult">
    <walk from="778460311#1" to="-315658900#7" />
  </person>
  <person id="ped_8" depart="38.14" type="adult">
    <walk from="778460311#1" to="-315658900#7" />
  </person>
  <person id="ped_9" depart="39.49" type="elderly">
    <walk from="778460311#1" to="-315658900#7" />
  </person>
  <person id="ped_10" depart="39.80" type="adult">
    <walk from="778460311#1" to="-315658900#7" />
  </person>
  <person id="ped_11" depart="40.54" type="adult">
    <walk from="778460311#1" to="-315658900#7" />
  </person>
  <person id="ped_12" depart="40.91" type="elderly">
    <walk from="778460311#1" to="-315658900#7" />
  </person>
  <person id="ped_13" depart="51.58" type="adult">
    <walk from="778460311#1" to="-315658900#7" />
  </person>
  <person id="ped_14" depart="57.08" type="adult">
    <walk from="778460311#1" to="-315658900#7" />
  </person>
  <person id="ped_15" depart="57.32" type="adult">
    <walk from="778460311#1" to="-315658900#7" />
  </person>
  <person id="ped_16" depart="64.55" type="adult">
    <walk from="778460311#1" to="-315658900#7" />
  </person>
  <person id="ped_17" depart="64.78" type="adult">
    <walk from="778460311#1" to="-315658900#7" />
  </person>
  <person id="ped_18" depart="66.16" type="adult">
    <walk from="778460311#1" to="-315658900#7" />
  </person>
  <person id="ped_19" depart="68.71" type="adult">
    <walk from="778460311#1" to="-315658900#7" />
  </person>
  <person id="ped_20" depart="75.95" type="adult">
    <walk from="778460311#1" to="-315658900#7" />
  </person>
  <person id="ped_21" depart="76.11" type="adult">
    <walk from="778460311#1" to="-315658900#7" />
  </person>
  <person id="ped_22" depart="76.96" type="adult">
    <walk from="778460311#1" to="-315658900#7" />
  </person>
  <person id="ped_23" depart="80.69" type="elderly">
    <walk from="778460311#1" to="-315658900#7" />
  </person>
  <person id="ped_24" depart="84.51" type="adult">
    <walk from="778460311#1" to="-315658900#7" />
  </person>
  <person id="ped_25" depart="92.12" type="adult">
    <walk from="778460311#1" to="-315658900#7" />
  </person>
  <person id="ped_26" depart="92.68" type="adult">
    <walk from="778460311#1" to="-315658900#7" />
  </person>
  <person id="ped_27" depart="92.91" type="adult">
    <walk from="778460311#1" to="-315658900#7" />
  </person>
  <person id="ped_28" depart="95.98" type="adult">
    <walk from="778460311#1" to="-315658900#7" />
  </person>
  <person id="ped_29" depart="96.50" type="adult">
    <walk from="778460311#1" to="-315658900#7" />
  </person>
  <person id="ped_30" depart="98.58" type="adult">
    <walk from="778460311#1" to="-315658900#7" />
  </person>
  <person id="ped_31" depart="108.45" type="elderly">
    <walk from="778460311#1" to="-315658900#7" />
  </person>
  <person id="ped_32" depart="109.61" type="adult">
    <walk from="778460311#1" to="-315658900#7" />
  </person>
  <person id="ped_33" depart="122.16" type="elderly">
    <walk from="778460311#1" to="-315658900#7" />
  </person>
  <person id="ped_34" depart="123.55" type="adult">
    <walk from="778460311#1" to="-315658900#7" />
  </person>
  <person id="ped_35" depart="123.83" type="elderly">
    <walk from="778460311#1" to="-315658900#7" />
  </person>
  <person id="ped_36" depart="125.83" type="adult">
    <walk from="778460311#1" to="-315658900#7" />
  </person>
  <person id="ped_37" depart="129.19" type="adult">
    <walk from="778460311#1" to="-315658900#7" />
  </person>
  <person id="ped_38" depart="130.54" type="elderly">
    <walk from="778460311#1" to="-315658900#7" />
  </person>
  <person id="ped_39" depart="134.46" type="adult">
    <walk from="778460311#1" to="-315658900#7" />
  </person>
  <person id="ped_40" depart="137.87" type="adult">
    <walk from="778460311#1" to="-315658900#7" />
  </person>
  <person id="ped_41" depart="139.25" type="elderly">
    <walk from="778460311#1" to="-315658900#7" />
  </person>
  <person id="ped_42" depart="148.65" type="adult">
    <walk from="778460311#1" to="-315658900#7" />
  </person>
  <person id="ped_43" depart="150.74" type="adult">
    <walk from="778460311#1" to="-315658900#7" />
  </person>
  <person id="ped_44" depart="151.11" type="adult">
    <walk from="778460311#1" to="-315658900#7" />
  </person>
  <person id="ped_45" depart="161.27" type="adult">
    <walk from="778460311#1" to="-315658900#7" />
  </person>
  <person id="ped_46" depart="162.46" type="adult">
    <walk from="778460311#1" to="-315658900#7" />
  </person>
  <person id="ped_47" depart="162.99" type="adult">
    <walk from="778460311#1" to="-315658900#7" />
  </person>
  <person id="ped_48" depart="165.57" type="adult">
    <walk from="778460311#1" to="-315658900#7" />
  </person>
  <person id="ped_49" depart="166.67" type="elderly">
    <walk from="778460311#1" to="-315658900#7" />
  </person>
  <person id="ped_50" depart="172.24" type="adult">
    <walk from="778460311#1" to="-315658900#7" />
  </person>
  <person id="ped_51" depart="179.45" type="adult">
    <walk from="778460311#1" to="-315658900#7" />
  </person>
  <person id="ped_52" depart="180.89" type="adult">
    <walk from="778460311#1" to="-315658900#7" />
  </person>
  <person id="ped_53" depart="193.40" type="adult">
    <walk from="778460311#1" to="-315658900#7" />
  </person>
  <person id="ped_54" depart="193.82" type="adult">
    <walk from="778460311#1" to="-315658900#7" />
  </person>
  <person id="ped_55" depart="197.81" type="adult">
    <walk from="778460311#1" to="-315658900#7" />
  </person>
  <person id="ped_56" depart="204.17" type="adult">
    <walk from="778460311#1" to="-315658900#7" />
  </person>
  <person id="ped_57" depart="210.22" type="adult">
    <walk from="778460311#1" to="-315658900#7" />
  </person>
  <person id="ped_58" depart="221.44" type="adult">
    <walk from="778460311#1" to="-315658900#7" />
  </person>
  <person id="ped_59" depart="225.56" type="adult">
    <walk from="778460311#1" to="-315658900#7" />
  </person>
  <person id="ped_60" depart="227.43" type="elderly">
    <walk from="778460311#1" to="-315658900#7" />
  </person>
  <person id="ped_61" depart="227.78" type="adult">
    <walk from="778460311#1" to="-315658900#7" />
  </person>
  <person id="ped_62" depart="229.04" type="adult">
    <walk from="778460311#1" to="-315658900#7" />
  </person>
  <person id="ped_63" depart="233.73" type="elderly">
    <walk from="778460311#1" to="-315658900#7" />
  </person>
  <person id="ped_64" depart="237.22" type="adult">
    <walk from="778460311#1" to="-315658900#7" />
  </person>
  <person id="ped_65" depart="237.24" type="adult">
    <walk from="778460311#1" to="-315658900#7" />
  </person>
  <person id="ped_66" depart="244.44" type="adult">
    <walk from="778460311#1" to="-315658900#7" />
  </person>
  <person id="ped_67" depart="245.10" type="adult">
    <walk from="778460311#1" to="-315658900#7" />
  </person>
  <person id="ped_68" depart="245.41" type="adult">
    <walk from="778460311#1" to="-315658900#7" />
  </person>
  <person id="ped_69" depart="246.17" type="adult">
    <walk from="778460311#1" to="-315658900#7" />
  </person>
  <person id="ped_70" depart="256.93" type="adult">
    <walk from="778460311#1" to="-315658900#7" />
  </person>
  <person id="ped_71" depart="261.49" type="adult">
    <walk from="778460311#1" to="-315658900#7" />
  </person>
  <person id="ped_72" depart="269.68" type="adult">
    <walk from="778460311#1" to="-315658900#7" />
  </person>
  <person id="ped_73" depart="271.22" type="adult">
    <walk from="778460311#1" to="-315658900#7" />
  </person>
  <person id="ped_74" depart="275.03" type="adult">
    <walk from="778460311#1" to="-315658900#7" />
  </person>
  <person id="ped_75" depart="279.40" type="adult">
    <walk from="778460311#1" to="-315658900#7" />
  </person>
  <person id="ped_76" depart="279.58" type="adult">
    <walk from="778460311#1" to="-315658900#7" />
  </person>
  <person id="ped_77" depart="280.84" type="adult">
    <walk from="778460311#1" to="-315658900#7" />
  </person>
  <person id="ped_78" depart="281.30" type="adult">
    <walk from="778460311#1" to="-315658900#7" />
  </person>
  <person id="ped_79" depart="281.30" type="adult">
    <walk from="778460311#1" to="-315658900#7" />
  </person>
  <person id="ped_80" depart="282.91" type="elderly">
    <walk from="778460311#1" to="-315658900#7" />
  </person>
  <person id="ped_81" depart="285.13" type="adult">
    <walk from="778460311#1" to="-315658900#7" />
  </person>
  <person id="ped_82" depart="288.17" type="adult">
    <walk from="778460311#1" to="-315658900#7" />
  </person>
  <person id="ped_83" depart="289.28" type="adult">
    <walk from="778460311#1" to="-315658900#7" />
  </person>
  <person id="ped_84" depart="290.40" type="elderly">
    <walk from="778460311#1" to="-315658900#7" />
  </person>
  <person id="ped_85" depart="291.75" type="adult">
    <walk from="778460311#1" to="-315658900#7" />
  </person>
  <person id="ped_86" depart="291.79" type="adult">
    <walk from="778460311#1" to="-315658900#7" />
  </person>
  <person id="ped_87" depart="294.91" type="adult">
    <walk from="778460311#1" to="-315658900#7" />
  </person>
  <person id="ped_88" depart="299.37" type="adult">
    <walk from="778460311#1" to="-315658900#7" />
  </person>
  <person id="ped_89" depart="303.10" type="elderly">
    <walk from="778460311#1" to="-315658900#7" />
  </person>
  <person id="ped_90" depart="303.35" type="adult">
    <walk from="778460311#1" to="-315658900#7" />
  </person>
  <person id="ped_91" depart="317.48" type="adult">
    <walk from="778460311#1" to="-315658900#7" />
  </person>
  <person id="ped_92" depart="326.17" type="adult">
    <walk from="778460311#1" to="-315658900#7" />
  </person>
  <person id="ped_93" depart="330.06" type="adult">
    <walk from="778460311#1" to="-315658900#7" />
  </person>
  <person id="ped_94" depart="337.64" type="elderly">
    <walk from="778460311#1" to="-315658900#7" />
  </person>
  <person id="ped_95" depart="338.66" type="adult">
    <walk from="778460311#1" to="-315658900#7" />
  </person>
  <person id="ped_96" depart="339.76" type="adult">
    <walk from="778460311#1" to="-315658900#7" />
  </person>
  <person id="ped_97" depart="341.99" type="adult">
    <walk from="778460311#1" to="-315658900#7" />
  </person>
  <person id="ped_98" depart="345.27" type="adult">
    <walk from="778460311#1" to="-315658900#7" />
  </person>
  <person id="ped_99" depart="351.31" type="adult">
    <walk from="778460311#1" to="-315658900#7" />
  </person>
  <person id="ped_100" depart="351.87" type="adult">
    <walk from="778460311#1" to="-315658900#7" />
  </person>
  <person id="ped_101" depart="352.54" type="adult">
    <walk from="778460311#1" to="-315658900#7" />
  </person>
  <person id="ped_102" depart="353.69" type="elderly">
    <walk from="778460311#1" to="-315658900#7" />
  </person>
  <person id="ped_103" depart="353.96" type="adult">
    <walk from="778460311#1" to="-315658900#7" />
  </person>
  <person id="ped_104" depart="365.38" type="adult">
    <walk from="778460311#1" to="-315658900#7" />
  </person>
  <person id="ped_105" depart="367.22" type="elderly">
    <walk from="778460311#1" to="-315658900#7" />
  </person>
  <person id="ped_106" depart="371.80" type="adult">
    <walk from="778460311#1" to="-315658900#7" />
  </person>
  <person id="ped_107" depart="372.11" type="elderly">
    <walk from="778460311#1" to="-315658900#7" />
  </person>
  <person id="ped_108" depart="375.80" type="elderly">
    <walk from="778460311#1" to="-315658900#7" />
  </person>
  <person id="ped_109" depart="376.63" type="adult">
    <walk from="778460311#1" to="-315658900#7" />
  </person>
  <person id="ped_110" depart="379.60" type="adult">
    <walk from="778460311#1" to="-315658900#7" />
  </person>
  <person id="ped_111" depart="379.91" type="adult">
    <walk from="778460311#1" to="-315658900#7" />
  </person>
  <person id="ped_112" depart="382.36" type="adult">
    <walk from="778460311#1" to="-315658900#7" />
  </person>
  <person id="ped_113" depart="383.78" type="adult">
    <walk from="778460311#1" to="-315658900#7" />
  </person>
  <person id="ped_114" depart="391.18" type="adult">
    <walk from="778460311#1" to="-315658900#7" />
  </person>
  <person id="ped_115" depart="394.51" type="elderly">
    <walk from="778460311#1" to="-315658900#7" />
  </person>
  <person id="ped_116" depart="399.00" type="elderly">
    <walk from="778460311#1" to="-315658900#7" />
  </person>
  <person id="ped_117" depart="399.17" type="adult">
    <walk from="778460311#1" to="-315658900#7" />
  </person>
  <person id="ped_118" depart="399.41" type="adult">
    <walk from="778460311#1" to="-315658900#7" />
  </person>
  <person id="ped_119" depart="399.65" type="adult">
    <walk from="778460311#1" to="-315658900#7" />
  </person>
  <person id="ped_120" depart="401.64" type="adult">
    <walk from="778460311#1" to="-315658900#7" />
  </person>
  <person id="ped_121" depart="403.06" type="adult">
    <walk from="778460311#1" to="-315658900#7" />
  </person>
  <person id="ped_122" depart="403.53" type="elderly">
    <walk from="778460311#1" to="-315658900#7" />
  </person>
  <person id="ped_123" depart="403.92" type="elderly">
    <walk from="778460311#1" to="-315658900#7" />
  </person>
  <person id="ped_124" depart="404.11" type="adult">
    <walk from="778460311#1" to="-315658900#7" />
  </person>
  <person id="ped_125" depart="411.58" type="adult">
    <walk from="778460311#1" to="-315658900#7" />
  </person>
  <person id="ped_126" depart="415.40" type="adult">
    <walk from="778460311#1" to="-315658900#7" />
  </person>
  <person id="ped_127" depart="416.25" type="elderly">
    <walk from="778460311#1" to="-315658900#7" />
  </person>
  <person id="ped_128" depart="418.30" type="adult">
    <walk from="778460311#1" to="-315658900#7" />
  </person>
  <person id="ped_129" depart="421.22" type="adult">
    <walk from="778460311#1" to="-315658900#7" />
  </person>
  <person id="ped_130" depart="425.58" type="adult">
    <walk from="778460311#1" to="-315658900#7" />
  </person>
  <person id="ped_131" depart="426.81" type="elderly">
    <walk from="778460311#1" to="-315658900#7" />
  </person>
  <person id="ped_132" depart="429.16" type="adult">
    <walk from="778460311#1" to="-315658900#7" />
  </person>
  <person id="ped_133" depart="432.36" type="adult">
    <walk from="778460311#1" to="-315658900#7" />
  </person>
  <person id="ped_134" depart="436.72" type="adult">
    <walk from="778460311#1" to="-315658900#7" />
  </person>
  <person id="ped_135" depart="440.39" type="adult">
    <walk from="778460311#1" to="-315658900#7" />
  </person>
  <person id="ped_136" depart="451.28" type="adult">
    <walk from="778460311#1" to="-315658900#7" />
  </person>
  <person id="ped_137" depart="455.12" type="adult">
    <walk from="778460311#1" to="-315658900#7" />
  </person>
  <person id="ped_138" depart="458.01" type="elderly">
    <walk from="778460311#1" to="-315658900#7" />
  </person>
  <person id="ped_139" depart="459.69" type="elderly">
    <walk from="778460311#1" to="-315658900#7" />
  </person>
  <person id="ped_140" depart="467.29" type="adult">
    <walk from="778460311#1" to="-315658900#7" />
  </person>
  <person id="ped_141" depart="468.75" type="adult">
    <walk from="778460311#1" to="-315658900#7" />
  </person>
  <person id="ped_142" depart="474.58" type="adult">
    <walk from="778460311#1" to="-315658900#7" />
  </person>
  <person id="ped_143" depart="478.10" type="adult">
    <walk from="778460311#1" to="-315658900#7" />
  </person>
  <person id="ped_144" depart="483.11" type="adult">
    <walk from="778460311#1" to="-315658900#7" />
  </person>
  <person id="ped_145" depart="483.40" type="adult">
    <walk from="778460311#1" to="-315658900#7" />
  </person>
  <person id="ped_146" depart="486.87" type="adult">
    <walk from="778460311#1" to="-315658900#7" />
  </person>
  <person id="ped_147" depart="490.45" type="adult">
    <walk from="778460311#1" to="-315658900#7" />
  </person>
  <person id="ped_148" depart="491.30" type="adult">
    <walk from="778460311#1" to="-315658900#7" />
  </person>
  <person id="ped_149" depart="491.31" type="adult">
    <walk from="778460311#1" to="-315658900#7" />
  </person>
  <person id="ped_150" depart="498.78" type="adult">
    <walk from="778460311#1" to="-315658900#7" />
  </person>
  <person id="ped_151" depart="499.06" type="adult">
    <walk from="778460311#1" to="-315658900#7" />
  </person>
  <person id="ped_152" depart="508.99" type="adult">
    <walk from="778460311#1" to="-315658900#7" />
  </person>
  <person id="ped_153" depart="510.71" type="elderly">
    <walk from="778460311#1" to="-315658900#7" />
  </person>
  <person id="ped_154" depart="512.38" type="elderly">
    <walk from="778460311#1" to="-315658900#7" />
  </person>
  <person id="ped_155" depart="516.43" type="adult">
    <walk from="778460311#1" to="-315658900#7" />
  </person>
  <person id="ped_156" depart="516.83" type="adult">
    <walk from="778460311#1" to="-315658900#7" />
  </person>
  <person id="ped_157" depart="520.17" type="adult">
    <walk from="778460311#1" to="-315658900#7" />
  </person>
  <person id="ped_158" depart="520.89" type="adult">
    <walk from="778460311#1" to="-315658900#7" />
  </person>
  <person id="ped_159" depart="521.07" type="elderly">
    <walk from="778460311#1" to="-315658900#7" />
  </person>
  <person id="ped_160" depart="524.25" type="adult">
    <walk from="778460311#1" to="-315658900#7" />
  </person>
  <person id="ped_161" depart="524.85" type="adult">
    <walk from="778460311#1" to="-315658900#7" />
  </person>
  <person id="ped_162" depart="530.28" type="adult">
    <walk from="778460311#1" to="-315658900#7" />
  </person>
  <person id="ped_163" depart="530.82" type="adult">
    <walk from="778460311#1" to="-315658900#7" />
  </person>
  <person id="ped_164" depart="531.19" type="adult">
    <walk from="778460311#1" to="-315658900#7" />
  </person>
  <person id="ped_165" depart="531.37" type="elderly">
    <walk from="778460311#1" to="-315658900#7" />
  </person>
  <person id="ped_166" depart="531.63" type="adult">
    <walk from="778460311#1" to="-315658900#7" />
  </person>
  <person id="ped_167" depart="531.79" type="adult">
    <walk from="778460311#1" to="-315658900#7" />
  </person>
  <person id="ped_168" depart="534.21" type="adult">
    <walk from="778460311#1" to="-315658900#7" />
  </person>
  <person id="ped_169" depart="534.45" type="adult">
    <walk from="778460311#1" to="-315658900#7" />
  </person>
  <person id="ped_170" depart="535.01" type="elderly">
    <walk from="778460311#1" to="-315658900#7" />
  </person>
  <person id="ped_171" depart="538.03" type="adult">
    <walk from="778460311#1" to="-315658900#7" />
  </person>
  <person id="ped_172" depart="539.84" type="adult">
    <walk from="778460311#1" to="-315658900#7" />
  </person>
  <person id="ped_173" depart="544.84" type="adult">
    <walk from="778460311#1" to="-315658900#7" />
  </person>
  <person id="ped_174" depart="545.12" type="adult">
    <walk from="778460311#1" to="-315658900#7" />
  </person>
  <person id="ped_175" depart="545.86" type="adult">
    <walk from="778460311#1" to="-315658900#7" />
  </person>
  <person id="ped_176" depart="550.63" type="elderly">
    <walk from="778460311#1" to="-315658900#7" />
  </person>
  <person id="ped_177" depart="550.91" type="adult">
    <walk from="778460311#1" to="-315658900#7" />
  </person>
  <person id="ped_178" depart="554.52" type="adult">
    <walk from="778460311#1" to="-315658900#7" />
  </person>
  <person id="ped_179" depart="558.09" type="adult">
    <walk from="778460311#1" to="-315658900#7" />
  </person>
  <person id="ped_180" depart="559.82" type="elderly">
    <walk from="778460311#1" to="-315658900#7" />
  </person>
  <person id="ped_181" depart="561.45" type="adult">
    <walk from="778460311#1" to="-315658900#7" />
  </person>
  <person id="ped_182" depart="562.24" type="adult">
    <walk from="778460311#1" to="-315658900#7" />
  </person>
  <person id="ped_183" depart="567.02" type="adult">
    <walk from="778460311#1" to="-315658900#7" />
  </person>
  <person id="ped_184" depart="573.09" type="adult">
    <walk from="778460311#1" to="-315658900#7" />
  </person>
  <person id="ped_185" depart="574.46" type="adult">
    <walk from="778460311#1" to="-315658900#7" />
  </person>
  <person id="ped_186" depart="583.07" type="elderly">
    <walk from="778460311#1" to="-315658900#7" />
  </person>
  <person id="ped_187" depart="583.45" type="adult">
    <walk from="778460311#1" to="-315658900#7" />
  </person>
  <person id="ped_188" depart="587.31" type="adult">
    <walk from="778460311#1" to="-315658900#7" />
  </person>
  <person id="ped_189" depart="592.64" type="adult">
    <walk from="778460311#1" to="-315658900#7" />
  </person>
  <person id="ped_190" depart="595.36" type="adult">
    <walk from="778460311#1" to="-315658900#7" />
  </person>
  <person id="ped_191" depart="602.31" type="adult">
    <walk from="778460311#1" to="-315658900#7" />
  </person>
  <person id="ped_192" depart="605.69" type="adult">
    <walk from="778460311#1" to="-315658900#7" />
  </person>
  <person id="ped_193" depart="616.80" type="elderly">
    <walk from="778460311#1" to="-315658900#7" />
  </person>
  <person id="ped_194" depart="620.10" type="adult">
    <walk from="778460311#1" to="-315658900#7" />
  </person>
  <person id="ped_195" depart="622.73" type="adult">
    <walk from="778460311#1" to="-315658900#7" />
  </person>
  <person id="ped_196" depart="623.31" type="adult">
    <walk from="778460311#1" to="-315658900#7" />
  </person>
  <person id="ped_197" depart="624.01" type="adult">
    <walk from="778460311#1" to="-315658900#7" />
  </person>
  <person id="ped_198" depart="627.78" type="elderly">
    <walk from="778460311#1" to="-315658900#7" />
  </person>
  <person id="ped_199" depart="631.49" type="elderly">
    <walk from="778460311#1" to="-315658900#7" />
  </person>
  <person id="ped_200" depart="631.96" type="elderly">
    <walk from="778460311#1" to="-315658900#7" />
  </person>
  <person id="ped_201" depart="657.24" type="adult">
    <walk from="778460311#1" to="-315658900#7" />
  </person>
  <person id="ped_202" depart="658.51" type="elderly">
    <walk from="778460311#1" to="-315658900#7" />
  </person>
  <person id="ped_203" depart="670.71" type="elderly">
    <walk from="778460311#1" to="-315658900#7" />
  </person>
  <person id="ped_204" depart="673.07" type="adult">
    <walk from="778460311#1" to="-315658900#7" />
  </person>
  <person id="ped_205" depart="673.41" type="adult">
    <walk from="778460311#1" to="-315658900#7" />
  </person>
  <person id="ped_206" depart="674.41" type="adult">
    <walk from="778460311#1" to="-315658900#7" />
  </person>
  <person id="ped_207" depart="675.37" type="adult">
    <walk from="778460311#1" to="-315658900#7" />
  </person>
  <person id="ped_208" depart="685.78" type="adult">
    <walk from="778460311#1" to="-315658900#7" />
  </person>
  <person id="ped_209" depart="693.25" type="adult">
    <walk from="778460311#1" to="-315658900#7" />
  </person>
  <person id="ped_210" depart="695.07" type="adult">
    <walk from="778460311#1" to="-315658900#7" />
  </person>
  <person id="ped_211" depart="695.45" type="adult">
    <walk from="778460311#1" to="-315658900#7" />
  </person>
  <person id="ped_212" depart="699.45" type="adult">
    <walk from="778460311#1" to="-315658900#7" />
  </person>
  <person id="ped_213" depart="705.38" type="elderly">
    <walk from="778460311#1" to="-315658900#7" />
  </person>
  <person id="ped_214" depart="713.41" type="adult">
    <walk from="778460311#1" to="-315658900#7" />
  </person>
  <person id="ped_215" depart="716.51" type="elderly">
    <walk from="778460311#1" to="-315658900#7" />
  </person>
  <person id="ped_216" depart="721.43" type="adult">
    <walk from="778460311#1" to="-315658900#7" />
  </person>
  <person id="ped_217" depart="721.77" type="adult">
    <walk from="778460311#1" to="-315658900#7" />
  </person>
  <person id="ped_218" depart="722.27" type="adult">
    <walk from="778460311#1" to="-315658900#7" />
  </person>
  <person id="ped_219" depart="725.45" type="elderly">
    <walk from="778460311#1" to="-315658900#7" />
  </person>
  <person id="ped_220" depart="734.69" type="elderly">
    <walk from="778460311#1" to="-315658900#7" />
  </person>
  <person id="ped_221" depart="740.08" type="adult">
    <walk from="778460311#1" to="-315658900#7" />
  </person>
  <person id="ped_222" depart="744.72" type="adult">
    <walk from="778460311#1" to="-315658900#7" />
  </person>
  <person id="ped_223" depart="745.38" type="adult">
    <walk from="778460311#1" to="-315658900#7" />
  </person>
  <person id="ped_224" depart="746.31" type="adult">
    <walk from="778460311#1" to="-315658900#7" />
  </person>
  <person id="ped_225" depart="751.90" type="adult">
    <walk from="778460311#1" to="-315658900#7" />
  </person>
  <person id="ped_226" depart="753.28" type="adult">
    <walk from="778460311#1" to="-315658900#7" />
  </person>
  <person id="ped_227" depart="754.67" type="adult">
    <walk from="778460311#1" to="-315658900#7" />
  </person>
  <person id="ped_228" depart="757.34" type="adult">
    <walk from="778460311#1" to="-315658900#7" />
  </person>
  <person id="ped_229" depart="769.06" type="adult">
    <walk from="778460311#1" to="-315658900#7" />
  </person>
  <person id="ped_230" depart="769.96" type="adult">
    <walk from="778460311#1" to="-315658900#7" />
  </person>
  <person id="ped_231" depart="773.50" type="elderly">
    <walk from="778460311#1" to="-315658900#7" />
  </person>
  <person id="ped_232" depart="773.66" type="elderly">
    <walk from="778460311#1" to="-315658900#7" />
  </person>
  <person id="ped_233" depart="775.54" type="elderly">
    <walk from="778460311#1" to="-315658900#7" />
  </person>
  <person id="ped_234" depart="776.08" type="adult">
    <walk from="778460311#1" to="-315658900#7" />
  </person>
  <person id="ped_235" depart="778.81" type="adult">
    <walk from="778460311#1" to="-315658900#7" />
  </person>
  <person id="ped_236" depart="779.99" type="adult">
    <walk from="778460311#1" to="-315658900#7" />
  </person>
  <person id="ped_237" depart="780.29" type="elderly">
    <walk from="778460311#1" to="-315658900#7" />
  </person>
  <person id="ped_238" depart="780.32" type="adult">
    <walk from="778460311#1" to="-315658900#7" />
  </person>
  <person id="ped_239" depart="785.70" type="adult">
    <walk from="778460311#1" to="-315658900#7" />
  </person>
  <person id="ped_240" depart="789.20" type="adult">
    <walk from="778460311#1" to="-315658900#7" />
  </person>
  <person id="ped_241" depart="803.79" type="adult">
    <walk from="778460311#1" to="-315658900#7" />
  </person>
  <person id="ped_242" depart="804.68" type="adult">
    <walk from="778460311#1" to="-315658900#7" />
  </person>
  <person id="ped_243" depart="805.00" type="adult">
    <walk from="778460311#1" to="-315658900#7" />
  </person>
  <person id="ped_244" depart="807.78" type="adult">
    <walk from="778460311#1" to="-315658900#7" />
  </person>
  <person id="ped_245" depart="812.02" type="adult">
    <walk from="778460311#1" to="-315658900#7" />
  </person>
  <person id="ped_246" depart="814.07" type="elderly">
    <walk from="778460311#1" to="-315658900#7" />
  </person>
  <person id="ped_247" depart="816.48" type="elderly">
    <walk from="778460311#1" to="-315658900#7" />
  </person>
  <person id="ped_248" depart="818.13" type="adult">
    <walk from="778460311#1" to="-315658900#7" />
  </person>
  <person id="ped_249" depart="821.82" type="adult">
    <walk from="778460311#1" to="-315658900#7" />
  </person>
  <person id="ped_250" depart="824.65" type="adult">
    <walk from="778460311#1" to="-315658900#7" />
  </person>
  <person id="ped_251" depart="843.47" type="adult">
    <walk from="778460311#1" to="-315658900#7" />
  </person>
  <person id="ped_252" depart="844.00" type="elderly">
    <walk from="778460311#1" to="-315658900#7" />
  </person>
  <person id="ped_253" depart="844.09" type="adult">
    <walk from="778460311#1" to="-315658900#7" />
  </person>
  <person id="ped_254" depart="845.94" type="elderly">
    <walk from="778460311#1" to="-315658900#7" />
  </person>
  <person id="ped_255" depart="846.16" type="adult">
    <walk from="778460311#1" to="-315658900#7" />
  </person>
  <person id="ped_256" depart="847.67" type="elderly">
    <walk from="778460311#1" to="-315658900#7" />
  </person>
  <person id="ped_257" depart="849.81" type="adult">
    <walk from="778460311#1" to="-315658900#7" />
  </person>
  <person id="ped_258" depart="851.30" type="adult">