<?xml version="1.0" encoding="UTF-8"?>

<!-- generated on 2026-04-17 02:59:08.922555 by Eclipse SUMO randomTrips.py v1.26.0
<configuration>
    <net-file value="/Users/junlee/Desktop/2026-1/js/result/tradeoff_pet_top12_seed12_60min_20260417_025716/sumo_nets/cw_6428/network.net.xml"/>
    <output-trip-file value="/Users/junlee/Desktop/2026-1/js/result/tradeoff_pet_top12_seed12_60min_20260417_025716/sumo_nets/cw_6428/routes_seed47.trips.xml"/>
    <route-file value="/Users/junlee/Desktop/2026-1/js/result/tradeoff_pet_top12_seed12_60min_20260417_025716/sumo_nets/cw_6428/routes_seed47.rou.xml"/>
    <vehicle-class value="passenger"/>
    <seed value="47"/>
    <period value="3.9248457796389524"/>
</configuration>
-->

<!-- generated on 2026-04-17T02:59:08.897683+09:00 by Eclipse SUMO duarouter 1.26.0
<duarouterConfiguration xmlns:xsi="http://www.w3.org/2001/XMLSchema-instance" xsi:noNamespaceSchemaLocation="http://sumo.dlr.de/xsd/duarouterConfiguration.xsd">

    <input>
        <net-file value="/Users/junlee/Desktop/2026-1/js/result/tradeoff_pet_top12_seed12_60min_20260417_025716/sumo_nets/cw_6428/network.net.xml"/>
        <route-files value="/Users/junlee/Desktop/2026-1/js/result/tradeoff_pet_top12_seed12_60min_20260417_025716/sumo_nets/cw_6428/routes_seed47.trips.xml"/>
    </input>

    <output>
        <output-file value="/Users/junlee/Desktop/2026-1/js/result/tradeoff_pet_top12_seed12_60min_20260417_025716/sumo_nets/cw_6428/routes_seed47.rou.xml"/>
        <alternatives-output value="NUL"/>
    </output>

    <time>
        <begin value="0.0"/>
        <end value="3600.0"/>
    </time>

    <report>
        <no-warnings value="true"/>
        <ignore-errors value="true"/>
        <no-step-log value="true"/>
    </report>

</duarouterConfiguration>
-->

<routes xmlns:xsi="http://www.w3.org/2001/XMLSchema-instance" xsi:noNamespaceSchemaLocation="http://sumo.dlr.de/xsd/routes_file.xsd">
    <vType id="passenger" vClass="passenger"/>
    <vehicle id="0" type="passenger" depart="0.00">
        <route edges="-243542154#2 464459668#0 464459668#1 464459668#2 -315658900#5 -315658900#4 -315658900#3 -315658900#2 -315658900#1 -315658900#0"/>
    </vehicle>
    <vehicle id="1" type="passenger" depart="3.92">
        <route edges="315658900#0 315658900#1 315658900#2 315658900#3 315658900#4 315658900#5 -464459668#2 -464459668#1 -464459668#0 243542154#2 -318747850#1 -318747850#0"/>
    </vehicle>
    <vehicle id="2" type="passenger" depart="7.85">
        <route edges="-243542154#3 -318747850#1 -464461045"/>
    </vehicle>
    <vehicle id="3" type="passenger" depart="11.77">
        <route edges="1339697074#0 1339697074#1 244399270 37399713#1 37399713#2 37399713#3 244399271#1 773060731 -775222468#2 -775222468#1 -775222468#0"/>
    </vehicle>
    <vehicle id="4" type="passenger" depart="15.70">
        <route edges="315658896#3 315658896#4 464459665 315658900#4 315658900#5 -464459668#2 -464459668#1 -464459668#0 243542154#2 -318747850#1"/>
    </vehicle>
    <vehicle id="5" type="passenger" depart="19.62">
        <route edges="318747848#1 315658896#1 315658896#2 315658896#3 315658896#4 464459665 -315658900#3 -464459667"/>
    </vehicle>
    <vehicle id="6" type="passenger" depart="23.55">
        <route edges="315658896#3 464459667 315658900#3 -464459665 -315658896#4 -315658896#3 -315658896#2 -315658896#1 -315658896#0"/>
    </vehicle>
    <vehicle id="7" type="passenger" depart="27.47">
        <route edges="-464459668#0 -243542154#1 464461045 318747850#1"/>
    </vehicle>
    <vehicle id="8" type="passenger" depart="31.40">
        <route edges="464459665 -315658900#3 -464459667 315658896#4 315658896#5"/>
    </vehicle>
    <vehicle id="9" type="passenger" depart="35.32">
        <route edges="315658900#5 -464459668#2 -464459668#1 -464459668#0 -243542154#1 464461045 318747850#1 -243542154#2 464459668#0 464459668#1 464459668#2 -315658900#5 -315658900#4 -464459665 -315658896#4 -315658896#3 -315658896#2 -315658896#1 -318747848#1 -318747848#0"/>
    </vehicle>
    <vehicle id="10" type="passenger" depart="39.25">
        <route edges="244399271#1 394102601 773060732#0 773060732#1 773060732#2 773060732#3"/>
    </vehicle>
    <vehicle id="11" type="passenger" depart="43.17">
        <route edges="384030398 1379887973#0 1379887973#1 1339697074#1"/>
    </vehicle>
    <vehicle id="12" type="passenger" depart="47.10">
        <route edges="-464459668#0 -243542154#1 464461045 318747850#1 -243542154#2 464459668#0 464459668#1 464459668#2 -315658900#5 -315658900#4 -464459665 -315658896#4 464459667 315658900#3"/>
    </vehicle>
    <vehicle id="13" type="passenger" depart="51.02">
        <route edges="315658896#1 315658896#2 315658896#3 315658896#4 464459665 315658900#4 315658900#5 315658900#6"/>
    </vehicle>
    <vehicle id="14" type="passenger" depart="54.95">
        <route edges="464459665 315658900#4 315658900#5 -464459668#2 -464459668#1"/>
    </vehicle>
    <vehicle id="15" type="passenger" depart="58.87">
        <route edges="-243542154#2 464459668#0 464459668#1 464459668#2 -315658900#5 -315658900#4 -464459665 -315658896#4 464459667 315658900#3 315658900#4 315658900#5 -464459668#2 -464459668#1 -464459668#0 243542154#2 -318747850#1"/>
    </vehicle>
    <vehicle id="16" type="passenger" depart="62.80">
        <route edges="-315658900#3 -315658900#2"/>
    </vehicle>
    <vehicle id="17" type="passenger" depart="66.72">
        <route edges="-243542154#1 464461045 318747850#1 -243542154#2 464459668#0 464459668#1 464459668#2 -315658900#5 -315658900#4 -315658900#3 -315658900#2 -315658900#1"/>
    </vehicle>
    <vehicle id="18" type="passenger" depart="70.65">
        <route edges="315658896#1 315658896#2 315658896#3 315658896#4 464459665 315658900#4 315658900#5 -464459668#2 -464459668#1 -464459668#0 243542154#2 -318747850#1 -464461045 243542154#1"/>
    </vehicle>
    <vehicle id="19" type="passenger" depart="74.57">
        <route edges="315658896#2"/>
    </vehicle>
    <vehicle id="20" type="passenger" depart="78.50">
        <route edges="-243542154#1 464461045 318747850#1 -243542154#2 464459668#0 464459668#1 464459668#2 -315658900#5 -315658900#4 -464459665 -315658896#4 -315658896#3 -315658896#2"/>
    </vehicle>
    <vehicle id="21" type="passenger" depart="82.42">
        <route edges="-315658896#4 -315658896#3 -315658896#2 -315658896#1"/>
    </vehicle>
    <vehicle id="22" type="passenger" depart="86.35">
        <route edges="315658896#4 464459665 315658900#4 315658900#5 -464459668#2 -464459668#1 -464459668#0 243542154#2 -318747850#1 -318747850#0"/>
    </vehicle>
    <vehicle id="23" type="passenger" depart="90.27">
        <route edges="464763971#2 1339697074#0 1339697074#1 244399270 37399713#1 37399713#2 37399713#3 244399271#1"/>
    </vehicle>
    <vehicle id="24" type="passenger" depart="94.20">
        <route edges="-315658896#4 464459667 315658900#3 315658900#4 315658900#5 -464459668#2 -464459668#1 -464459668#0 243542154#2 -318747850#1 -464461045 243542154#1"/>
    </vehicle>
    <vehicle id="25" type="passenger" depart="98.12">
        <route edges="-464461045 243542154#1 464459668#0"/>
    </vehicle>
    <vehicle id="26" type="passenger" depart="102.05">
        <route edges="-243542154#2 464459668#0 464459668#1 464459668#2 -315658900#5 -315658900#4 -464459665 -315658896#4"/>
    </vehicle>
    <vehicle id="27" type="passenger" depart="105.97">
        <route edges="318747848#1 -315658896#0"/>
    </vehicle>
    <vehicle id="28" type="passenger" depart="109.90">
        <route edges="-464459668#0 243542154#2 -318747850#1 -464461045 243542154#1"/>
    </vehicle>
    <vehicle id="29" type="passenger" depart="113.82">
        <route edges="315658896#1 315658896#2 315658896#3 315658896#4 464459665 315658900#4 315658900#5 -464459668#2 -464459668#1"/>
    </vehicle>
    <vehicle id="30" type="passenger" depart="117.75">
        <route edges="-464459668#1 -464459668#0 -243542154#1 464461045 318747850#1 -243542154#2 464459668#0 464459668#1 464459668#2 -315658900#5 -315658900#4 -464459665 -315658896#4 -315658896#3 -315658896#2 -315658896#1 -318747848#1 -318747848#0"/>
    </vehicle>
    <vehicle id="31" type="passenger" depart="121.67">
        <route edges="-243542154#3 -243542154#2 464459668#0 464459668#1 464459668#2"/>
    </vehicle>
    <vehicle id="32" type="passenger" depart="125.60">
        <route edges="464459668#2 -315658900#5 -315658900#4 -464459665 -315658896#4 464459667 315658900#3 315658900#4 315658900#5 -464459668#2 -464459668#1 -464459668#0"/>
    </vehicle>
    <vehicle id="33" type="passenger" depart="129.52">
        <route edges="315658896#1 315658896#2 315658896#3 315658896#4 464459665 315658900#4 315658900#5 -464459668#2 -464459668#1"/>
    </vehicle>
    <vehicle id="34" type="passenger" depart="133.44">
        <route edges="464461045 318747850#1 -243542154#2 464459668#0 464459668#1"/>
    </vehicle>
    <vehicle id="35" type="passenger" depart="137.37">
        <route edges="315658900#2"/>
    </vehicle>
    <vehicle id="36" type="passenger" depart="141.29">
        <route edges="318747848#1 315658896#1 315658896#2 315658896#3 315658896#4 464459665 315658900#4 315658900#5 -464459668#2 -769488211"/>
    </vehicle>
    <vehicle id="37" type="passenger" depart="145.22">
        <route edges="-315658900#7 -315658900#6 -315658900#5 -315658900#4 -464459665 -315658896#4 -315658896#3"/>
    </vehicle>
    <vehicle id="38" type="passenger" depart="149.14">
        <route edges="-315658900#6 -315658900#5 -315658900#4 -464459665 315658896#5"/>
    </vehicle>
    <vehicle id="39" type="passenger" depart="153.07">
        <route edges="-243542154#1 464461045 318747850#1 -243542154#2 464459668#0 464459668#1 464459668#2 -315658900#5 -315658900#4 -315658900#3 -315658900#2"/>
    </vehicle>
    <vehicle id="40" type="passenger" depart="156.99">
        <route edges="1339697075#0 1339697075#1 1339697074#0 1339697074#1 244399270 37399713#1"/>
    </vehicle>
    <vehicle id="41" type="passenger" depart="160.92">
        <route edges="315658900#5 -464459668#2 -464459668#1 -464459668#0 -243542154#1 464461045 318747850#1"/>
    </vehicle>
    <vehicle id="42" type="passenger" depart="164.84">
        <route edges="315658896#1 315658896#2 315658896#3 464459667 -315658900#2 -315658900#1 -315658900#0"/>
    </vehicle>
    <vehicle id="43" type="passenger" depart="168.77">
        <route edges="464459668#1 464459668#2 -315658900#5 -315658900#4 -315658900#3 -315658900#2"/>
    </vehicle>
    <vehicle id="44" type="passenger" depart="172.69">
        <route edges="244399271#1 394102601 773060732#0 773060732#1 773060732#2 773060732#3"/>
    </vehicle>
    <vehicle id="45" type="passenger" depart="176.62">
        <route edges="315658900#5 -464459668#2 -464459668#1 -464459668#0 -243542154#1 464461045 318747850#1 -243542154#2 464459668#0 464459668#1 464459668#2 -315658900#5 -315658900#4 -464459665 -315658896#4 -315658896#3"/>
    </vehicle>
    <vehicle id="46" type="passenger" depart="180.54">
        <route edges="-318747850#1 -464461045 243542154#1 464459668#0 464459668#1 464459668#2 -315658900#5 -315658900#4 -464459665 -315658896#4 464459667 315658900#3"/>
    </vehicle>
    <vehicle id="47" type="passenger" depart="184.47">
        <route edges="315658900#4 315658900#5 -464459668#2 -464459668#1 -464459668#0 -243542154#1 -243542154#0"/>
    </vehicle>
    <vehicle id="48" type="passenger" depart="188.39">
        <route edges="464459665 -315658900#3 -315658900#2 -315658900#1 -315658900#0"/>
    </vehicle>
    <vehicle id="49" type="passenger" depart="192.32">
        <route edges="-464459665 -315658896#4 464459667 315658900#3 315658900#4 315658900#5 -464459668#2 -464459668#1 -464459668#0 -243542154#1 464461045 318747850#1 -243542154#2 464459668#0 464459668#1 464459668#2"/>
    </vehicle>
    <vehicle id="50" type="passenger" depart="196.24">
        <route edges="-315658896#4 464459667 315658900#3 315658900#4 315658900#5 -464459668#2 -464459668#1 -464459668#0 243542154#2 243542154#3"/>
    </vehicle>
    <vehicle id="51" type="passenger" depart="200.17">
        <route edges="-464461045 243542154#1 464459668#0 464459668#1 464459668#2 -315658900#5 -315658900#4 -464459665 -315658896#4 464459667 315658900#3"/>
    </vehicle>
    <vehicle id="52" type="passenger" depart="204.09">
        <route edges="-315658896#5 464459665 315658900#4 315658900#5 -464459668#2 -464459668#1"/>
    </vehicle>
    <vehicle id="53" type="passenger" depart="208.02">
        <route edges="-243542154#3 -243542154#2 464459668#0 464459668#1 464459668#2 -315658900#5 -315658900#4 -315658900#3 -464459667 315658896#4 464459665"/>
    </vehicle>
    <vehicle id="54" type="passenger" depart="211.94">
        <route edges="-315658900#3 -464459667 315658896#4 464459665 315658900#4 315658900#5 -464459668#2 -464459668#1 -464459668#0 243542154#2 -318747850#1 -464461045"/>
    </vehicle>
    <vehicle id="55" type="passenger" depart="215.87">
        <route edges="243542154#0 243542154#1 464459668#0 464459668#1 464459668#2 315658900#6"/>
    </vehicle>
    <vehicle id="56" type="passenger" depart="219.79">
        <route edges="243542154#0 243542154#1 464459668#0 464459668#1 464459668#2 -315658900#5 -315658900#4 -315658900#3 -464459667 315658896#4"/>
    </vehicle>
    <vehicle id="57" type="passenger" depart="223.72">
        <route edges="-315658896#5 464459665 315658900#4 315658900#5 -464459668#2 -464459668#1 -464459668#0 243542154#2 -318747850#1 -464461045"/>
    </vehicle>
    <vehicle id="58" type="passenger" depart="227.64">
        <route edges="244399270 37399713#1 37399713#2 37399713#3 244399271#1 773060731"/>
    </vehicle>
    <vehicle id="59" type="passenger" depart="231.57">
        <route edges="315658896#1 315658896#2 315658896#3 315658896#4 464459665 315658900#4 315658900#5 315658900#6 315658900#7"/>
    </vehicle>
    <vehicle id="60" type="passenger" depart="235.49">
        <route edges="-315658900#8 -315658900#7 -315658900#6 -464459668#2 -464459668#1 -464459668#0 -243542154#1 464461045 318747850#1 -243542154#2"/>
    </vehicle>
    <vehicle id="61" type="passenger" depart="239.42">
        <route edges="244399271#1 773060731"/>
    </vehicle>
    <vehicle id="62" type="passenger" depart="243.34">
        <route edges="769488211 -464459668#1 -464459668#0"/>
    </vehicle>
    <vehicle id="63" type="passenger" depart="247.27">
        <route edges="-315658900#8 -315658900#7 -315658900#6 -315658900#5 -315658900#4 -464459665 -315658896#4 -315658896#3 -315658896#2 -315658896#1 -318747848#1 -318747848#0"/>
    </vehicle>
    <vehicle id="64" type="passenger" depart="251.19">
        <route edges="769488211 464459668#2 -315658900#5 -315658900#4 -315658900#3 -315658900#2"/>
    </vehicle>
    <vehicle id="65" type="passenger" depart="255.11">
        <route edges="-464461045 243542154#1 464459668#0 464459668#1 464459668#2 -315658900#5 -315658900#4 -464459665 -315658896#4 464459667 315658900#3 315658900#4 315658900#5"/>
    </vehicle>
    <vehicle id="66" type="passenger" depart="259.04">
        <route edges="1379887973#1 1339697074#1 244399270 37399713#1 37399713#2"/>
    </vehicle>
    <vehicle id="67" type="passenger" depart="262.96">
        <route edges="315658900#0 315658900#1 315658900#2 315658900#3 315658900#4 315658900#5 315658900#6 315658900#7"/>
    </vehicle>
    <vehicle id="68" type="passenger" depart="266.89">
        <route edges="243542154#0 243542154#1 464459668#0"/>
    </vehicle>
    <vehicle id="69" type="passenger" depart="270.81">
        <route edges="-315658900#5 -315658900#4 -464459665 -315658896#4 -315658896#3 -315658896#2 -315658896#1 -318747848#1"/>
    </vehicle>
    <vehicle id="70" type="passenger" depart="274.74">
        <route edges="1379887973#1 1339697074#1 379943751"/>
    </vehicle>
    <vehicle id="71" type="passenger" depart="278.66">
        <route edges="-464461045 243542154#1 464459668#0 464459668#1 464459668#2 -315658900#5 -315658900#4 -315658900#3 -315658900#2 -315658900#1"/>
    </vehicle>
    <vehicle id="72" type="passenger" depart="282.59">
        <route edges="315658900#0 315658900#1 315658900#2 315658900#3 315658900#4 315658900#5 -464459668#2 -464459668#1 -464459668#0 -243542154#1 -243542154#0"/>
    </vehicle>
    <vehicle id="73" type="passenger" depart="286.51">
        <route edges="244399270 37399713#1 37399713#2 37399713#3 244399271#1 394102601 773060732#0 773060732#1 773060732#2 773060732#3"/>
    </vehicle>
    <vehicle id="74" type="passenger" depart="290.44">
        <route edges="318747848#1 315658896#1 315658896#2 315658896#3 315658896#4"/>
    </vehicle>
    <vehicle id="75" type="passenger" depart="294.36">
        <route edges="315658896#3 315658896#4 464459665 315658900#4 315658900#5 -464459668#2 -464459668#1 -464459668#0 243542154#2 -318747850#1 464461046"/>
    </vehicle>
    <vehicle id="76" type="passenger" depart="298.29">
        <route edges="-315658896#1 -318747848#1"/>
    </vehicle>
    <vehicle id="77" type="passenger" depart="302.21">
        <route edges="315658900#4 315658900#5 -464459668#2 -464459668#1 -464459668#0 -243542154#1 464461045 318747850#1 -243542154#2"/>
    </vehicle>
    <vehicle id="78" type="passenger" depart="306.14">
        <route edges="315658896#4 464459665 -315658900#3 -464459667 -315658896#3 -315658896#2 -315658896#1 -315658896#0"/>
    </vehicle>
    <vehicle id="79" type="passenger" depart="310.06">
        <route edges="-315658896#5 -315658896#4 464459667 315658900#3 -464459665"/>
    </vehicle>
    <vehicle id="80" type="passenger" depart="313.99">
        <route edges="318747848#1 315658896#1 315658896#2 315658896#3 464459667 315658900#3"/>
    </vehicle>
    <vehicle id="81" type="passenger" depart="317.91">
        <route edges="1339697075#1 -464763971#2 -464763971#0"/>
    </vehicle>
    <vehicle id="82" type="passenger" depart="321.84">
        <route edges="-315658896#5 464459665 315658900#4 315658900#5 -464459668#2 -464459668#1 -464459668#0 -243542154#1 464461045 318747850#1 -243542154#2 464459668#0 464459668#1"/>
    </vehicle>
    <vehicle id="83" type="passenger" depart="325.76">
        <route edges="-315658896#5 464459665 315658900#4 315658900#5 -464459668#2 -769488211"/>
    </vehicle>
    <vehicle id="84" type="passenger" depart="329.69">
        <route edges="-315658900#6 -464459668#2 -464459668#1 -464459668#0 -243542154#1 464461045 318747850#1 -243542154#2"/>
    </vehicle>
    <vehicle id="85" type="passenger" depart="333.61">
        <route edges="315658900#1 315658900#2 315658900#3 315658900#4 315658900#5 315658900#6"/>
    </vehicle>
    <vehicle id="86" type="passenger" depart="337.54">
        <route edges="464459668#0 464459668#1 464459668#2 -315658900#5 -315658900#4 -315658900#3"/>
    </vehicle>
    <vehicle id="87" type="passenger" depart="341.46">
        <route edges="769488211 464459668#2 -315658900#5 -315658900#4 -315658900#3 -315658900#2"/>
    </vehicle>
    <vehicle id="88" type="passenger" depart="345.39">
        <route edges="315658896#1 315658896#2 315658896#3 464459667 -315658900#2"/>
    </vehicle>
    <vehicle id="89" type="passenger" depart="349.31">
        <route edges="315658900#1 315658900#2 315658900#3 315658900#4 315658900#5 -464459668#2 -464459668#1 -464459668#0 -243542154#1 464461045"/>
    </vehicle>
    <vehicle id="90" type="passenger" depart="353.24">
        <route edges="-464459665 -315658896#4 464459667 -315658900#2 -315658900#1"/>
    </vehicle>
    <vehicle id="91" type="passenger" depart="357.16">
        <route edges="244399271#1 394102601"/>
    </vehicle>
    <vehicle id="92" type="passenger" depart="361.09">
        <route edges="244399271#1 773060731 -775222468#2"/>
    </vehicle>
    <vehicle id="93" type="passenger" depart="365.01">
        <route edges="464763971#2 1339697074#0 1339697074#1 244399270 37399713#1 37399713#2 37399713#3 244399271#1 773060731 -775222468#2 -775222468#1"/>
    </vehicle>
    <vehicle id="94" type="passenger" depart="368.94">
        <route edges="464459668#0 464459668#1 464459668#2 -315658900#5 -315658900#4 -464459665 -315658896#4 464459667 315658900#3 315658900#4 315658900#5 -464459668#2 -464459668#1 -464459668#0 -243542154#1 464461045 318747850#1 -243542154#2"/>
    </vehicle>
    <vehicle id="95" type="passenger" depart="372.86">
        <route edges="243542154#2 -318747850#1 -464461045 243542154#1 464459668#0 464459668#1 464459668#2 -315658900#5 -315658900#4 -315658900#3 -315658900#2 -315658900#1 -315658900#0"/>
    </vehicle>
    <vehicle id="96" type="passenger" depart="376.79">
        <route edges="315658900#2 315658900#3 315658900#4 315658900#5 -464459668#2 -769488211"/>
    </vehicle>
    <vehicle id="97" type="passenger" depart="380.71">
        <route edges="318747848#0 318747848#1 315658896#1 315658896#2 315658896#3"/>
    </vehicle>
    <vehicle id="98" type="passenger" depart="384.63">
        <route edges="-315658900#5 -315658900#4 -464459665 -315658896#4 464459667 315658900#3 315658900#4 315658900#5 -464459668#2 -464459668#1 -464459668#0 -243542154#1 464461045 318747850#1 -243542154#2 464459668#0 464459668#1"/>
    </vehicle>
    <vehicle id="99" type="passenger" depart="388.56">
        <route edges="-315658900#6 -464459668#2 -464459668#1 -464459668#0 -243542154#1 464461045"/>
    </vehicle>
    <vehicle id="100" type="passenger" depart="392.48">
        <route edges="-464459667 315658896#4 464459665 315658900#4 315658900#5 315658900#6 315658900#7"/>
    </vehicle>
    <vehicle id="101" type="passenger" depart="396.41">
        <route edges="464763971#2 1339697074#0 1339697074#1 244399270 37399713#1 37399713#2 37399713#3 244399271#1 773060731"/>
    </vehicle>
    <vehicle id="102" type="passenger" depart="400.33">
        <route edges="315658900#0 315658900#1 315658900#2 -464459667 -315658896#3 -315658896#2 -315658896#1 -318747848#1"/>
    </vehicle>
    <vehicle id="103" type="passenger" depart="404.26">
        <route edges="464459668#0 464459668#1 464459668#2 -315658900#5 -315658900#4 -464459665 -315658896#4 464459667 315658900#3 315658900#4 315658900#5 -464459668#2"/>
    </vehicle>
    <vehicle id="104" type="passenger" depart="408.18">
        <route edges="315658900#4 315658900#5 -464459668#2 -464459668#1 -464459668#0 -243542154#1 464461045 318747850#1"/>
    </vehicle>
    <vehicle id="105" type="passenger" depart="412.11">
        <route edges="37399713#1 37399713#2 37399713#3 244399271#1 394102601 773060732#0"/>
    </vehicle>
    <vehicle id="106" type="passenger" depart="416.03">
        <route edges="-464459668#0 -243542154#1 464461045 318747850#1 -243542154#2 464459668#0 464459668#1 464459668#2 -315658900#5 -315658900#4 -315658900#3 -315658900#2"/>
    </vehicle>
    <vehicle id="107" type="passenger" depart="419.96">
        <route edges="318747848#0 318747848#1 315658896#1 315658896#2 315658896#3 315658896#4 464459665 315658900#4 315658900#5 -464459668#2 -464459668#1 -464459668#0 243542154#2 243542154#3"/>
    </vehicle>
    <vehicle id="108" type="passenger" depart="423.88">
        <route edges="318747850#1 -243542154#2 464459668#0 464459668#1 464459668#2 -315658900#5 -315658900#4 -464459665 -315658896#4 464459667 315658900#3 315658900#4 315658900#5 -464459668#2"/>
    </vehicle>
    <vehicle id="109" type="passenger" depart="427.81">
        <route edges="464763971#0 464763971#2"/>
    </vehicle>
    <vehicle id="110" type="passenger" depart="431.73">
        <route edges="-318747850#1 -464461045 243542154#1 464459668#0 464459668#1 464459668#2 315658900#6"/>
    </vehicle>
    <vehicle id="111" type="passenger" depart="435.66">
        <route edges="315658900#2 315658900#3 -464459665 -315658896#4 464459667 -315658900#2 -315658900#1 -315658900#0"/>
    </vehicle>
    <vehicle id="112" type="passenger" depart="439.58">
        <route edges="1379887973#1 1339697074#1 244399270 37399713#1 37399713#2 37399713#3 244399271#1 394102601 773060732#0"/>
    </vehicle>
    <vehicle id="113" type="passenger" depart="443.51">
        <route edges="-315658896#4 464459667 315658900#3"/>
    </vehicle>
    <vehicle id="114" type="passenger" depart="447.43">
        <route edges="-464461046 318747850#1 -243542154#2 464459668#0 464459668#1 -769488211"/>
    </vehicle>
    <vehicle id="115" type="passenger" depart="451.36">
        <route edges="315658900#2 -464459667 -315658896#3 -315658896#2"/>
    </vehicle>
    <vehicle id="116" type="passenger" depart="455.28">
        <route edges="243542154#2 -318747850#1 -464461045 243542154#1 464459668#0 464459668#1 464459668#2 -315658900#5 -315658900#4 -464459665 -315658896#4 -315658896#3 -315658896#2 -315658896#1 -318747848#1"/>
    </vehicle>
    <vehicle id="117" type="passenger" depart="459.21">
        <route edges="315658896#1 315658896#2 315658896#3 315658896#4 464459665 -315658900#3 -464459667"/>
    </vehicle>
    <vehicle id="118" type="passenger" depart="463.13">
        <route edges="315658900#4 315658900#5 -464459668#2 -464459668#1 -464459668#0 -243542154#1 464461045 318747850#1 -243542154#2 464459668#0 464459668#1"/>
    </vehicle>
    <vehicle id="119" type="passenger" depart="467.06">
        <route edges="315658900#4 315658900#5 -464459668#2 -464459668#1 -464459668#0 243542154#2 243542154#3"/>
    </vehicle>
    <vehicle id="120" type="passenger" depart="470.98">
        <route edges="769488211 464459668#2 -315658900#5 -315658900#4 -464459665 315658896#5"/>
    </vehicle>
    <vehicle id="121" type="passenger" depart="474.91">
        <route edges="315658900#0 315658900#1 315658900#2 315658900#3 315658900#4 315658900#5 -464459668#2 -464459668#1 -464459668#0 243542154#2"/>
    </vehicle>
    <vehicle id="122" type="passenger" depart="478.83">
        <route edges="1339697075#0 1339697075#1 -464763971#2 1379887973#0"/>
    </vehicle>
    <vehicle id="123" type="passenger" depart="482.76">
        <route edges="318747850#0 318747850#1 -243542154#2 464459668#0 464459668#1 464459668#2 -315658900#5 -315658900#4 -464459665 -315658896#4 464459667 315658900#3 315658900#4 315658900#5 -464459668#2 -464459668#1 -464459668#0"/>
    </vehicle>
    <vehicle id="124" type="passenger" depart="486.68">
        <route edges="-315658896#5 -315658896#4 464459667 315658900#3"/>
    </vehicle>
    <vehicle id="125" type="passenger" depart="490.61">
        <route edges="318747850#0 318747850#1 -243542154#2 464459668#0 464459668#1 464459668#2 -315658900#5 -315658900#4 -315658900#3 -464459667 315658896#4 464459665"/>
    </vehicle>
    <vehicle id="126" type="passenger" depart="494.53">
        <route edges="769488211 -464459668#1 -464459668#0 -243542154#1 464461045 318747850#1 -243542154#2 464459668#0 464459668#1"/>
    </vehicle>
    <vehicle id="127" type="passenger" depart="498.46">
        <route edges="1339697075#0 1339697075#1 -464763971#2 1379887973#0"/>
    </vehicle>
    <vehicle id="128" type="passenger" depart="502.38">
        <route edges="-464459665 -315658896#4 464459667 315658900#3 315658900#4 315658900#5 -464459668#2 -464459668#1"/>
    </vehicle>
    <vehicle id="129" type="passenger" depart="506.31">
        <route edges="-243542154#2 -243542154#1 -243542154#0"/>
    </vehicle>
    <vehicle id="130" type="passenger" depart="510.23">
        <route edges="37399713#3 244399271#1 773060731"/>
    </vehicle>
    <vehicle id="131" type="passenger" depart="514.15">
        <route edges="243542154#1 464459668#0 464459668#1 464459668#2 -315658900#5 -315658900#4 -464459665 -315658896#4 -315658896#3 -315658896#2 -315658896#1"/>
    </vehicle>
    <vehicle id="132" type="passenger" depart="518.08">
        <route edges="37399713#1 37399713#2 37399713#3 244399271#1 773060731 -775222468#2 -775222468#1"/>
    </vehicle>
    <vehicle id="133" type="passenger" depart="522.00">
        <route edges="-315658900#7 -315658900#6 -315658900#5 -315658900#4 -464459665 -315658896#4 -315658896#3 -315658896#2 -315658896#1 -315658896#0"/>
    </vehicle>
    <vehicle id="134" type="passenger" depart="525.93">
        <route edges="-315658896#5 464459665 315658900#4 315658900#5 -464459668#2 -464459668#1 -464459668#0 -243542154#1 464461045 318747850#1 -243542154#2"/>
    </vehicle>
    <vehicle id="135" type="passenger" depart="529.85">
        <route edges="464459668#1 464459668#2 -315658900#5 -315658900#4"/>
    </vehicle>
    <vehicle id="136" type="passenger" depart="533.78">
        <route edges="318747848#1 315658896#1 315658896#2 315658896#3 315658896#4 464459665 315658900#4 315658900#5 -464459668#2 -464459668#1 -464459668#0 243542154#2 -318747850#1 -464461045 243542154#1"/>
    </vehicle>
    <vehicle id="137" type="passenger" depart="537.70">
        <route edges="464459665 315658900#4 315658900#5 -464459668#2 -464459668#1 -464459668#0 -243542154#1 464461045 318747850#1 -243542154#2 464459668#0 464459668#1 464459668#2 -315658900#5 -315658900#4 -464459665"/>
    </vehicle>
    <vehicle id="138" type="passenger" depart="541.63">
        <route edges="-243542154#3 -243542154#2 464459668#0 464459668#1 464459668#2 -315658900#5 -315658900#4 -315658900#3 -315658900#2"/>
    </vehicle>
    <vehicle id="139" type="passenger" depart="545.55">
        <route edges="318747850#0 318747850#1 -243542154#2 -243542154#1 464461045"/>
    </vehicle>
    <vehicle id="140" type="passenger" depart="549.48">
        <route edges="37399713#0 37399713#1 37399713#2 37399713#3 244399271#1 773060731 379943747"/>
    </vehicle>
    <vehicle id="141" type="passenger" depart="553.40">
        <route edges="-318747850#1 -464461045 243542154#1 464459668#0 464459668#1 464459668#2 -315658900#5 -315658900#4 -464459665 -315658896#4 464459667 315658900#3 315658900#4 315658900#5 -464459668#2"/>
    </vehicle>
    <vehicle id="142" type="passenger" depart="557.33">
        <route edges="315658896#1 315658896#2 315658896#3 464459667 315658900#3 -464459665"/>
    </vehicle>
    <vehicle id="143" type="passenger" depart="561.25">