<?xml version="1.0" encoding="UTF-8"?>

<!-- generated on 2026-04-17 02:59:13.838080 by Eclipse SUMO randomTrips.py v1.26.0
<configuration>
    <net-file value="/Users/junlee/Desktop/2026-1/js/result/tradeoff_pet_top12_seed12_60min_20260417_025716/sumo_nets/cw_6428/network.net.xml"/>
    <output-trip-file value="/Users/junlee/Desktop/2026-1/js/result/tradeoff_pet_top12_seed12_60min_20260417_025716/sumo_nets/cw_6428/routes_seed53.trips.xml"/>
    <route-file value="/Users/junlee/Desktop/2026-1/js/result/tradeoff_pet_top12_seed12_60min_20260417_025716/sumo_nets/cw_6428/routes_seed53.rou.xml"/>
    <vehicle-class value="passenger"/>
    <seed value="53"/>
    <period value="3.3786685202852023"/>
</configuration>
-->

<routes xmlns:xsi="http://www.w3.org/2001/XMLSchema-instance" xsi:noNamespaceSchemaLocation="http://sumo.dlr.de/xsd/routes_file.xsd">
    <vType id="passenger" vClass="passenger"/>
    <trip id="0" depart="0.00" from="315658900#4" to="464461046" type="passenger"/>
    <trip id="1" depart="3.38" from="464459668#2" to="-243542154#2" type="passenger"/>
    <trip id="2" depart="6.76" from="1339697074#0" to="1339697074#1" type="passenger"/>
    <trip id="3" depart="10.14" from="-464459665" to="-315658900#2" type="passenger"/>
    <trip id="4" depart="13.51" from="315658896#1" to="315658900#4" type="passenger"/>
    <trip id="5" depart="16.89" from="-464459668#1" to="-315658896#4" type="passenger"/>
    <trip id="6" depart="20.27" from="243542154#0" to="-318747850#1" type="passenger"/>
    <trip id="7" depart="23.65" from="384030398" to="37399713#2" type="passenger"/>
    <trip id="8" depart="27.03" from="243542154#1" to="464459667" type="passenger"/>
    <trip id="9" depart="30.41" from="-315658900#4" to="-243542154#2" type="passenger"/>
    <trip id="10" depart="33.79" from="318747848#1" to="464459665" type="passenger"/>
    <trip id="11" depart="37.17" from="244399270" to="244399270" type="passenger"/>
    <trip id="12" depart="40.54" from="-315658900#8" to="-464459668#0" type="passenger"/>
    <trip id="13" depart="43.92" from="-464459665" to="-464459668#1" type="passenger"/>
    <trip id="14" depart="47.30" from="315658900#5" to="243542154#1" type="passenger"/>
    <trip id="15" depart="50.68" from="-464459665" to="464459668#0" type="passenger"/>
    <trip id="16" depart="54.06" from="315658900#0" to="-315658900#2" type="passenger"/>
    <trip id="17" depart="57.44" from="-464763971#2" to="-775222468#2" type="passenger"/>
    <trip id="18" depart="60.82" from="-315658896#5" to="464461045" type="passenger"/>
    <trip id="19" depart="64.19" from="37399713#1" to="244399271#1" type="passenger"/>
    <trip id="20" depart="67.57" from="315658900#3" to="-315658900#4" type="passenger"/>
    <trip id="21" depart="70.95" from="315658896#4" to="-243542154#1" type="passenger"/>
    <trip id="22" depart="74.33" from="315658900#3" to="-464459668#2" type="passenger"/>
    <trip id="23" depart="77.71" from="315658896#4" to="464459665" type="passenger"/>
    <trip id="24" depart="81.09" from="244399270" to="244399270" type="passenger"/>
    <trip id="25" depart="84.47" from="315658900#4" to="-318747850#0" type="passenger"/>
    <trip id="26" depart="87.85" from="318747848#0" to="318747850#1" type="passenger"/>
    <trip id="27" depart="91.22" from="-464461045" to="-318747848#0" type="passenger"/>
    <trip id="28" depart="94.60" from="315658900#1" to="315658896#5" type="passenger"/>
    <trip id="29" depart="97.98" from="315658900#5" to="-464459668#2" type="passenger"/>
    <trip id="30" depart="101.36" from="243542154#2" to="464459667" type="passenger"/>
    <trip id="31" depart="104.74" from="-464461045" to="-315658900#5" type="passenger"/>
    <trip id="32" depart="108.12" from="-243542154#1" to="-315658900#2" type="passenger"/>
    <trip id="33" depart="111.50" from="318747848#1" to="-315658896#2" type="passenger"/>
    <trip id="34" depart="114.87" from="464459667" to="464459667" type="passenger"/>
    <trip id="35" depart="118.25" from="-464459668#0" to="-315658900#4" type="passenger"/>
    <trip id="36" depart="121.63" from="244399270" to="773060732#1" type="passenger"/>
    <trip id="37" depart="125.01" from="-243542154#3" to="243542154#3" type="passenger"/>
    <trip id="38" depart="128.39" from="-464763971#2" to="773060732#0" type="passenger"/>
    <trip id="39" depart="131.77" from="775222468#1" to="773060732#3" type="passenger"/>
    <trip id="40" depart="135.15" from="315658896#0" to="-315658900#5" type="passenger"/>
    <trip id="41" depart="138.53" from="1339697074#0" to="1339697074#1" type="passenger"/>
    <trip id="42" depart="141.90" from="315658896#2" to="464459668#1" type="passenger"/>
    <trip id="43" depart="145.28" from="-315658900#3" to="-464461045" type="passenger"/>
    <trip id="44" depart="148.66" from="-315658900#3" to="-315658896#0" type="passenger"/>
    <trip id="45" depart="152.04" from="-318747850#1" to="464461046" type="passenger"/>
    <trip id="46" depart="155.42" from="-464461045" to="-315658900#0" type="passenger"/>
    <trip id="47" depart="158.80" from="-464459668#0" to="-315658900#4" type="passenger"/>
    <trip id="48" depart="162.18" from="464459665" to="-315658900#5" type="passenger"/>
    <trip id="49" depart="165.55" from="-315658896#5" to="315658900#5" type="passenger"/>
    <trip id="50" depart="168.93" from="769488211" to="315658900#6" type="passenger"/>
    <trip id="51" depart="172.31" from="1379887973#0" to="-775222468#2" type="passenger"/>
    <trip id="52" depart="175.69" from="464459668#1" to="-315658896#1" type="passenger"/>
    <trip id="53" depart="179.07" from="315658900#3" to="-318747850#0" type="passenger"/>
    <trip id="54" depart="182.45" from="315658896#3" to="-315658900#4" type="passenger"/>
    <trip id="55" depart="185.83" from="-315658900#3" to="-464459668#0" type="passenger"/>
    <trip id="56" depart="189.21" from="318747850#0" to="-318747848#1" type="passenger"/>
    <trip id="57" depart="192.58" from="37399713#3" to="773060732#2" type="passenger"/>
    <trip id="58" depart="195.96" from="315658896#4" to="-315658900#1" type="passenger"/>
    <trip id="59" depart="199.34" from="318747850#1" to="315658900#7" type="passenger"/>
    <trip id="60" depart="202.72" from="315658900#0" to="-464459668#1" type="passenger"/>
    <trip id="61" depart="206.10" from="464459667" to="-243542154#0" type="passenger"/>
    <trip id="62" depart="209.48" from="-464461046" to="315658900#3" type="passenger"/>
    <trip id="63" depart="212.86" from="-464459667" to="315658896#5" type="passenger"/>
    <trip id="64" depart="216.23" from="464459668#0" to="-318747850#0" type="passenger"/>
    <trip id="65" depart="219.61" from="315658896#1" to="-243542154#1" type="passenger"/>
    <trip id="66" depart="222.99" from="-464459668#0" to="-318747848#0" type="passenger"/>
    <trip id="67" depart="226.37" from="-315658896#4" to="464459667" type="passenger"/>
    <trip id="68" depart="229.75" from="464459667" to="464461046" type="passenger"/>
    <trip id="69" depart="233.13" from="769488211" to="315658900#8" type="passenger"/>
    <trip id="70" depart="236.51" from="315658900#5" to="464461045" type="passenger"/>
    <trip id="71" depart="239.89" from="464763971#0" to="773060732#1" type="passenger"/>
    <trip id="72" depart="243.26" from="315658900#3" to="-464459665" type="passenger"/>
    <trip id="73" depart="246.64" from="315658896#2" to="-464459665" type="passenger"/>
    <trip id="74" depart="250.02" from="37399713#3" to="-775222468#0" type="passenger"/>
    <trip id="75" depart="253.40" from="1339697075#1" to="37399713#3" type="passenger"/>
    <trip id="76" depart="256.78" from="-315658900#4" to="-315658896#3" type="passenger"/>
    <trip id="77" depart="260.16" from="-464459668#0" to="-464459668#1" type="passenger"/>
    <trip id="78" depart="263.54" from="464459665" to="-464459667" type="passenger"/>
    <trip id="79" depart="266.91" from="769488211" to="315658900#5" type="passenger"/>
    <trip id="80" depart="270.29" from="243542154#0" to="464459668#0" type="passenger"/>
    <trip id="81" depart="273.67" from="-315658896#5" to="464461045" type="passenger"/>
    <trip id="82" depart="277.05" from="315658896#1" to="315658896#4" type="passenger"/>
    <trip id="83" depart="280.43" from="-464459668#1" to="243542154#1" type="passenger"/>
    <trip id="84" depart="283.81" from="1339697074#1" to="394102601" type="passenger"/>
    <trip id="85" depart="287.19" from="-315658900#4" to="243542154#1" type="passenger"/>
    <trip id="86" depart="290.57" from="-464461046" to="-315658900#2" type="passenger"/>
    <trip id="87" depart="293.94" from="-464461045" to="243542154#3" type="passenger"/>
    <trip id="88" depart="297.32" from="1339697075#1" to="379943751" type="passenger"/>
    <trip id="89" depart="300.70" from="-315658900#3" to="243542154#2" type="passenger"/>
    <trip id="90" depart="304.08" from="243542154#1" to="-315658896#3" type="passenger"/>
    <trip id="91" depart="307.46" from="769488211" to="464461046" type="passenger"/>
    <trip id="92" depart="310.84" from="315658900#3" to="315658900#5" type="passenger"/>
    <trip id="93" depart="314.22" from="-315658900#7" to="243542154#2" type="passenger"/>
    <trip id="94" depart="317.59" from="315658900#1" to="-315658900#0" type="passenger"/>
    <trip id="95" depart="320.97" from="315658896#1" to="464461045" type="passenger"/>
    <trip id="96" depart="324.35" from="318747848#1" to="-315658896#3" type="passenger"/>
    <trip id="97" depart="327.73" from="-243542154#3" to="-318747848#1" type="passenger"/>
    <trip id="98" depart="331.11" from="-315658900#5" to="-464459668#1" type="passenger"/>
    <trip id="99" depart="334.49" from="318747848#1" to="315658900#8" type="passenger"/>
    <trip id="100" depart="337.87" from="464459668#1" to="315658896#4" type="passenger"/>
    <trip id="101" depart="341.25" from="315658900#1" to="315658896#5" type="passenger"/>
    <trip id="102" depart="344.62" from="315658896#1" to="315658900#6" type="passenger"/>
    <trip id="103" depart="348.00" from="-315658896#5" to="-315658896#0" type="passenger"/>
    <trip id="104" depart="351.38" from="1339697075#0" to="37399713#1" type="passenger"/>
    <trip id="105" depart="354.76" from="464459665" to="-315658900#1" type="passenger"/>
    <trip id="106" depart="358.14" from="773060731" to="379943747" type="passenger"/>
    <trip id="107" depart="361.52" from="-464459665" to="-315658896#2" type="passenger"/>
    <trip id="108" depart="364.90" from="1339697074#1" to="37399713#1" type="passenger"/>
    <trip id="109" depart="368.27" from="-464461045" to="315658896#5" type="passenger"/>
    <trip id="110" depart="371.65" from="315658896#1" to="-315658900#0" type="passenger"/>
    <trip id="111" depart="375.03" from="318747848#1" to="315658900#5" type="passenger"/>
    <trip id="112" depart="378.41" from="315658896#3" to="-315658896#1" type="passenger"/>
    <trip id="113" depart="381.79" from="769488211" to="464459668#2" type="passenger"/>
    <trip id="114" depart="385.17" from="769488211" to="-769488211" type="passenger"/>
    <trip id="115" depart="388.55" from="464763971#0" to="37399713#3" type="passenger"/>
    <trip id="116" depart="391.93" from="773060731" to="-775222468#1" type="passenger"/>
    <trip id="117" depart="395.30" from="464459665" to="-318747848#0" type="passenger"/>
    <trip id="118" depart="398.68" from="315658896#3" to="464459665" type="passenger"/>
    <trip id="119" depart="402.06" from="-464459668#1" to="-315658896#0" type="passenger"/>
    <trip id="120" depart="405.44" from="318747848#0" to="-315658900#3" type="passenger"/>
    <trip id="121" depart="408.82" from="37399713#0" to="37399713#3" type="passenger"/>
    <trip id="122" depart="412.20" from="464763971#0" to="773060732#1" type="passenger"/>
    <trip id="123" depart="415.58" from="315658896#3" to="315658900#8" type="passenger"/>
    <trip id="124" depart="418.95" from="-464459667" to="-315658900#1" type="passenger"/>
    <trip id="125" depart="422.33" from="318747850#0" to="464459668#1" type="passenger"/>
    <trip id="126" depart="425.71" from="464459668#0" to="-315658896#2" type="passenger"/>
    <trip id="127" depart="429.09" from="315658900#2" to="315658900#4" type="passenger"/>
    <trip id="128" depart="432.47" from="244399270" to="773060732#0" type="passenger"/>
    <trip id="129" depart="435.85" from="-315658900#7" to="-318747850#0" type="passenger"/>
    <trip id="130" depart="439.23" from="244399270" to="-775222468#2" type="passenger"/>
    <trip id="131" depart="442.61" from="384030398" to="244399270" type="passenger"/>
    <trip id="132" depart="445.98" from="315658896#0" to="243542154#2" type="passenger"/>
    <trip id="133" depart="449.36" from="-243542154#1" to="-315658896#0" type="passenger"/>
    <trip id="134" depart="452.74" from="-243542154#1" to="464459668#2" type="passenger"/>
    <trip id="135" depart="456.12" from="315658896#2" to="-318747848#1" type="passenger"/>
    <trip id="136" depart="459.50" from="315658900#1" to="464459667" type="passenger"/>
    <trip id="137" depart="462.88" from="-315658900#6" to="-315658900#0" type="passenger"/>
    <trip id="138" depart="466.26" from="-315658900#4" to="315658896#5" type="passenger"/>
    <trip id="139" depart="469.63" from="-318747850#1" to="-464459668#1" type="passenger"/>
    <trip id="140" depart="473.01" from="315658896#2" to="-315658900#0" type="passenger"/>
    <trip id="141" depart="476.39" from="-464459668#2" to="-464459667" type="passenger"/>
    <trip id="142" depart="479.77" from="315658900#3" to="243542154#3" type="passenger"/>
    <trip id="143" depart="483.15" from="1339697074#1" to="773060732#0" type="passenger"/>
    <trip id="144" depart="486.53" from="-464461046" to="318747850#1" type="passenger"/>
    <trip id="145" depart="489.91" from="-243542154#3" to="-315658896#1" type="passenger"/>
    <trip id="146" depart="493.29" from="318747848#0" to="315658900#7" type="passenger"/>
    <trip id="147" depart="496.66" from="-464763971#2" to="37399713#2" type="passenger"/>
    <trip id="148" depart="500.04" from="-243542154#2" to="-318747850#0" type="passenger"/>
    <trip id="149" depart="503.42" from="769488211" to="-464459665" type="passenger"/>
    <trip id="150" depart="506.80" from="318747848#1" to="-243542154#1" type="passenger"/>
    <trip id="151" depart="510.18" from="243542154#2" to="315658896#5" type="passenger"/>
    <trip id="152" depart="513.56" from="464459667" to="-464459665" type="passenger"/>
    <trip id="153" depart="516.94" from="-464461046" to="464459668#1" type="passenger"/>
    <trip id="154" depart="520.31" from="464459668#1" to="-315658896#4" type="passenger"/>
    <trip id="155" depart="523.69" from="-464459665" to="315658896#5" type="passenger"/>
    <trip id="156" depart="527.07" from="318747850#0" to="464459665" type="passenger"/>
    <trip id="157" depart="530.45" from="-464763971#2" to="-464763971#0" type="passenger"/>
    <trip id="158" depart="533.83" from="318747850#1" to="243542154#1" type="passenger"/>
    <trip id="159" depart="537.21" from="-243542154#3" to="-315658896#1" type="passenger"/>
    <trip id="160" depart="540.59" from="318747848#0" to="-315658896#3" type="passenger"/>
    <trip id="161" depart="543.97" from="243542154#2" to="-464459668#1" type="passenger"/>
    <trip id="162" depart="547.34" from="-464461045" to="-315658896#2" type="passenger"/>
    <trip id="163" depart="550.72" from="1339697074#0" to="773060732#2" type="passenger"/>
    <trip id="164" depart="554.10" from="-315658900#6" to="315658900#8" type="passenger"/>
    <trip id="165" depart="557.48" from="315658896#3" to="-464459668#1" type="passenger"/>
    <trip id="166" depart="560.86" from="464459667" to="464459665" type="passenger"/>
    <trip id="167" depart="564.24" from="-315658900#4" to="315658900#7" type="passenger"/>
    <trip id="168" depart="567.62" from="775222468#2" to="775222468#2" type="passenger"/>
    <trip id="169" depart="570.99" from="-315658896#4" to="464459668#0" type="passenger"/>
    <trip id="170" depart="574.37" from="1339697074#1" to="37399713#2" type="passenger"/>
    <trip id="171" depart="577.75" from="315658896#2" to="315658900#6" type="passenger"/>
    <trip id="172" depart="581.13" from="-464459665" to="464459665" type="passenger"/>
    <trip id="173" depart="584.51" from="379943747" to="773060732#2" type="passenger"/>
    <trip id="174" depart="587.89" from="-464459668#0" to="315658900#7" type="passenger"/>
    <trip id="175" depart="591.27" from="318747848#0" to="315658896#3" type="passenger"/>
    <trip id="176" depart="594.65" from="315658896#4" to="-243542154#0" type="passenger"/>
    <trip id="177" depart="598.02" from="-315658900#6" to="315658896#5" type="passenger"/>
    <trip id="178" depart="601.40" from="315658896#1" to="-315658896#1" type="passenger"/>
    <trip id="179" depart="604.78" from="-315658900#8" to="464459668#2" type="passenger"/>
    <trip id="180" depart="608.16" from="464459668#1" to="-315658896#0" type="passenger"/>
    <trip id="181" depart="611.54" from="-315658900#7" to="315658896#5" type="passenger"/>
    <trip id="182" depart="614.92" from="464459668#1" to="464461045" type="passenger"/>
    <trip id="183" depart="618.30" from="769488211" to="464459668#2" type="passenger"/>
    <trip id="184" depart="621.68" from="315658896#2" to="315658900#8" type="passenger"/>
    <trip id="185" depart="625.05" from="464461045" to="-464461045" type="passenger"/>
    <trip id="186" depart="628.43" from="243542154#1" to="464459667" type="passenger"/>
    <trip id="187" depart="631.81" from="315658900#4" to="-315658900#3" type="passenger"/>
    <trip id="188" depart="635.19" from="-464459668#2" to="-318747848#0" type="passenger"/>
    <trip id="189" depart="638.57" from="-464459667" to="464461046" type="passenger"/>
    <trip id="190" depart="641.95" from="-775222468#2" to="-775222468#2" type="passenger"/>
    <trip id="191" depart="645.33" from="-315658896#5" to="464461045" type="passenger"/>
    <trip id="192" depart="648.70" from="-464459668#2" to="-315658896#1" type="passenger"/>
    <trip id="193" depart="652.08" from="773060732#2" to="773060732#3" type="passenger"/>
    <trip id="194" depart="655.46" from="-315658896#1" to="-318747848#0" type="passenger"/>
    <trip id="195" depart="658.84" from="-315658896#5" to="-464459668#2" type="passenger"/>
    <trip id="196" depart="662.22" from="-315658896#5" to="315658900#3" type="passenger"/>
    <trip id="197" depart="665.60" from="-464459668#0" to="-769488211" type="passenger"/>
    <trip id="198" depart="668.98" from="-464459668#1" to="-464459665" type="passenger"/>
    <trip id="199" depart="672.36" from="-243542154#1" to="315658900#8" type="passenger"/>
    <trip id="200" depart="675.73" from="-243542154#3" to="315658900#6" type="passenger"/>
    <trip id="201" depart="679.11" from="384030398" to="37399713#1" type="passenger"/>
    <trip id="202" depart="682.49" from="-464459668#1" to="-315658896#0" type="passenger"/>
    <trip id="203" depart="685.87" from="243542154#1" to="-243542154#2" type="passenger"/>
    <trip id="204" depart="689.25" from="-315658896#5" to="315658896#4" type="passenger"/>
    <trip id="205" depart="692.63" from="1339697075#0" to="1339697075#1" type="passenger"/>
    <trip id="206" depart="696.01" from="315658900#5" to="315658900#5" type="passenger"/>
    <trip id="207" depart="699.38" from="318747848#0" to="-318747848#1" type="passenger"/>
    <trip id="208" depart="702.76" from="-315658900#7" to="-318747850#0" type="passenger"/>
    <trip id="209" depart="706.14" from="-464459668#2" to="464459667" type="passenger"/>
    <trip id="210" depart="709.52" from="464459667" to="-315658896#1" type="passenger"/>
    <trip id="211" depart="712.90" from="-464461046" to="315658900#4" type="passenger"/>
    <trip id="212" depart="716.28" from="-315658900#5" to="243542154#1" type="passenger"/>
    <trip id="213" depart="719.66" from="-315658900#6" to="315658900#3" type="passenger"/>
    <trip id="214" depart="723.04" from="315658900#2" to="464459668#1" type="passenger"/>
    <trip id="215" depart="726.41" from="315658896#3" to="-464459668#2" type="passenger"/>
    <trip id="216" depart="729.79" from="-464459667" to="-464459668#0" type="passenger"/>
    <trip id="217" depart="733.17" from="-464763971#2" to="1339697074#1" type="passenger"/>
    <trip id="218" depart="736.55" from="1339697075#0" to="1339697074#1" type="passenger"/>
    <trip id="219" depart="739.93" from="464763971#0" to="-775222468#0" type="passenger"/>
    <trip id="220" depart="743.31" from="318747850#0" to="-315658896#3" type="passenger"/>
    <trip id="221" depart="746.69" from="775222468#0" to="775222468#1" type="passenger"/>
    <trip id="222" depart="750.06" from="315658896#3" to="315658896#5" type="passenger"/>
    <trip id="223" depart="753.44" from="-318747850#1" to="243542154#2" type="passenger"/>
    <trip id="224" depart="756.82" from="-464763971#2" to="-775222468#0" type="passenger"/>
    <trip id="225" depart="760.20" from="315658900#0" to="315658900#8" type="passenger"/>
    <trip id="226" depart="763.58" from="37399713#1" to="773060732#0" type="passenger"/>
    <trip id="227" depart="766.96" from="244399271#1" to="773060732#3" type="passenger"/>
    <trip id="228" depart="770.34" from="464459667" to="315658900#7" type="passenger"/>
    <trip id="229" depart="773.72" from="-464459668#2" to="-769488211" type="passenger"/>
    <trip id="230" depart="777.09" from="-315658900#5" to="-315658896#4" type="passenger"/>
    <trip id="231" depart="780.47" from="464461045" to="-464459668#2" type="passenger"/>
    <trip id="232" depart="783.85" from="315658896#3" to="-315658900#2" type="passenger"/>
    <trip id="233" depart="787.23" from="315658896#1" to="315658900#6" type="passenger"/>
    <trip id="234" depart="790.61" from="-318747850#1" to="-318747848#1" type="passenger"/>
    <trip id="235" depart="793.99" from="318747850#0" to="-315658896#1" type="passenger"/>
    <trip id="236" depart="797.37" from="243542154#0" to="315658900#6" type="passenger"/>
    <trip id="237" depart="800.74" from="318747850#1" to="464459665" type="passenger"/>
    <trip id="238" depart="804.12" from="775222468#1" to="775222468#2" type="passenger"/>
    <trip id="239" depart="807.50" from="-464459668#0" to="243542154#2" type="passenger"/>
    <trip id="240" depart="810.88" from="464459667" to="-464459665" type="passenger"/>
    <trip id="241" depart="814.26" from="315658900#3" to="-318747850#0" type="passenger"/>
    <trip id="242" depart="817.64" from="1339697075#0" to="773060732#2" type="passenger"/>
    <trip id="243" depart="821.02" from="315658896#4" to="315658900#5" type="passenger"/>
    <trip id="244" depart="824.40" from="-315658896#4" to="-318747850#1" type="passenger"/>
    <trip id="245" depart="827.77" from="315658896#3" to="464461045" type="passenger"/>
    <trip id="246" depart="831.15" from="243542154#2" to="-315658900#1" type="passenger"/>
    <trip id="247" depart="834.53" from="315658896#0" to="243542154#3" type="passenger"/>
    <trip id="248" depart="837.91" from="315658900#0" to="-315658896#4" type="passenger"/>
    <trip id="249" depart="841.29" from="-243542154#1" to="-464459665" type="passenger"/>
    <trip id="250" depart="844.67" from="-464459668#1" to="464459668#2" type="passenger"/>
    <trip id="251" depart="848.05" from="318747850#1" to="315658900#5" type="passenger"/>
    <trip id="252" depart="851.42" from="315658896#4" to="315658900#6" type="passenger"/>
    <trip id="253" depart="854.80" from="315658900#4" to="464459668#2" type="passenger"/>
    <trip id="254" depart="858.18" from="-464459668#0" to="315658900#8" type="passenger"/>
    <trip id="255" depart="861.56" from="1339697074#0" to="-775222468#2" type="passenger"/>
    <trip id="256" depart="864.94" from="315658896#0" to="-315658900#4" type="passenger"/>
    <trip id="257" depart="868.32" from="-464459665" to="-315658896#2" type="passenger"/>
    <trip id="258" depart="871.70" from="315658896#0" to="-318747850#0" type="passenger"/>
    <trip id="259" depart="875.08" from="243542154#2" to="-243542154#2" type="passenger"/>
    <trip id="260" depart="878.45" from="37399713#0" to="-775222468#1" type="passenger"/>
    <trip id="261" depart="881.83" from="37399713#1" to="394102601" type="passenger"/>
    <trip id="262" depart="885.21" from="-464459665" to="243542154#1" type="passenger"/>
    <trip id="263" depart="888.59" from="464763971#0" to="394102601" type="passenger"/>
    <trip id="264" depart="891.97" from="315658896#1" to="315658896#3" type="passenger"/>
    <trip id="265" depart="895.35" from="464459667" to="315658900#7" type="passenger"/>
    <trip id="266" depart="898.73" from="-315658900#3" to="243542154#2" type="passenger"/>
    <trip id="267" depart="902.10" from="1379887973#1" to="37399713#1" type="passenger"/>
    <trip id="268" depart="905.48" from="464763971#2" to="394102601" type="passenger"/>
    <trip id="269" depart="908.86" from="1339697074#0" to="-775222468#2" type="passenger"/>
    <trip id="270" depart="912.24" from="464459668#0" to="315658900#6" type="passenger"/>
    <trip id="271" depart="915.62" from="315658896#4" to="464459668#1" type="passenger"/>
    <trip id="272" depart="919.00" from="464459667" to="-243542154#1" type="passenger"/>
    <trip id="273" depart="922.38" from="-315658900#3" to="-464459668#1" type="passenger"/>
    <trip id="274" depart="925.76" from="384030398" to="464763971#2" type="passenger"/>
    <trip id="275" depart="929.13" from="-318747850#1" to="464459668#1" type="passenger"/>
    <trip id="276" depart="932.51" from="-464459668#2" to="464461045" type="passenger"/>
    <trip id="277" depart="935.89" from="773060732#0" to="773060732#2" type="passenger"/>
    <trip id="278" depart="939.27" from="-315658900#5" to="315658896#4" type="passenger"/>
    <trip id="279" depart="942.65" from="-464459667" to="-243542154#1" type="passenger"/>
    <trip id="280" depart="946.03" from="769488211" to="-464459667" type="passenger"/>
    <trip id="281" depart="949.41" from="315658896#4" to="-315658896#0" type="passenger"/>
    <trip id="282" depart="952.78" from="243542154#0" to="318747850#1" type="passenger"/>
    <trip id="283" depart="956.16" from="315658896#0" to="243542154#2" type="passenger"/>
    <trip id="284" depart="959.54" from="318747848#0" to="-464459668#1" type="passenger"/>
    <trip id="285" depart="962.92" from="-464459665" to="-315658900#4" type="passenger"/>
    <trip id="286" depart="966.30" from="318747848#1" to="464459665" type="passenger"/>
    <trip id="287" depart="969.68" from="315658896#4" to="464459667" type="passenger"/>
    <trip id="288" depart="973.06" from="-315658900#5" to="-315658900#5" type="passenger"/>
    <trip id="289" depart="976.44" from="318747848#0" to="315658900#4" type="passenger"/>
    <trip id="290" depart="979.81" from="243542154#2" to="-769488211" type="passenger"/>
    <trip id="291" depart="983.19" from="1379887973#1" to="244399270" type="passenger"/>
    <trip id="292" depart="986.57" from="-464461045" to="315658900#4" type="passenger"/>
    <trip id="293" depart="989.95" from="-243542154#3" to="-243542154#1" type="passenger"/>
    <trip id="294" depart="993.33" from="464459668#0" to="-464459665" type="passenger"/>
    <trip id="295" depart="996.71" from="37399713#3" to="-775222468#0" type="passenger"/>
    <trip id="296" depart="1000.09" from="315658896#0" to="-315658896#1" type="passenger"/>
    <trip id="297" depart="1003.46" from="-464459667" to="315658900#3" type="passenger"/>
    <trip id="298" depart="1006.84" from="315658900#2" to="464459668#2" type="passenger"/>
    <trip id="299" depart="1010.22" from="-464461046" to="-318747850#0" type="passenger"/>
    <trip id="300" depart="1013.60" from="1339697075#0" to="-384030398" type="passenger"/>
    <trip id="301" depart="1016.98" from="318747848#1" to="-464459668#0" type="passenger"/>
    <trip id="302" depart="1020.36" from="315658900#4" to="-315658896#4" type="passenger"/>
    <trip id="303" depart="1023.74" from="-464763971#2" to="773060732#1" type="passenger"/>
    <trip id="304" depart="1027.12" from="1339697074#0" to="-775222468#1" type="passenger"/>
    <trip id="305" depart="1030.49" from="-464461046" to="315658900#6" type="passenger"/>
    <trip id="306" depart="1033.87" from="-315658900#3" to="315658900#7" type="passenger"/>
    <trip id="307" depart="1037.25" from="-464459667" to="-243542154#2" type="passenger"/>
    <trip id="308" depart="1040.63" from="315658896#1" to="464459668#2" type="passenger"/>
    <trip id="309" depart="1044.01" from="318747850#0" to="-243542154#0" type="passenger"/>
    <trip id="310" depart="1047.39" from="-315658896#3" to="-315658896#3" type="passenger"/>
    <trip id="311" depart="1050.77" from="-315658896#5" to="315658900#3" type="passenger"/>
    <trip id="312" depart="1054.14" from="379943747" to="773060732#3" type="passenger"/>
    <trip id="313" depart="1057.52" from="-243542154#2" to="-315658900#2" type="passenger"/>
    <trip id="314" depart="1060.90" from="315658896#1" to="243542154#3" type="passenger"/>
    <trip id="315" depart="1064.28" from="315658900#3" to="-315658900#5" type="passenger"/>
    <trip id="316" depart="1067.66" from="-315658900#6" to="-315658900#6" type="passenger"/>
    <trip id="317" depart="1071.04" from="318747848#0" to="315658900#3" type="passenger"/>
    <trip id="318" depart="1074.42" from="-243542154#3" to="-318747850#0" type="passenger"/>
    <trip id="319" depart="1077.80" from="315658900#3" to="-318747850#0" type="passenger"/>
    <trip id="320" depart="1081.17" from="-315658900#5" to="315658896#5" type="passenger"/>
    <trip id="321" depart="1084.55" from="-315658896#4" to="-318747850#1" type="passenger"/>
    <trip id="322" depart="1087.93" from="318747848#1" to="-243542154#1" type="passenger"/>
    <trip id="323" depart="1091.31" from="-318747850#1" to="464461045" type="passenger"/>