<?xml version="1.0" encoding="UTF-8"?>

<!-- generated on 2026-04-15 23:22:49.953553 by Eclipse SUMO randomTrips.py v1.26.0
<configuration>
    <net-file value="/Users/junlee/Desktop/2026-1/js/result/report_top12_seed4_2h/sumo_nets/cw_6213/network.net.xml"/>
    <output-trip-file value="/Users/junlee/Desktop/2026-1/js/result/report_top12_seed4_2h/sumo_nets/cw_6213/routes_seed43.trips.xml"/>
    <route-file value="/Users/junlee/Desktop/2026-1/js/result/report_top12_seed4_2h/sumo_nets/cw_6213/routes_seed43.rou.xml"/>
    <vehicle-class value="passenger"/>
    <seed value="43"/>
    <end value="1800.0"/>
    <period value="1.7838852865440398"/>
</configuration>
-->

<routes xmlns:xsi="http://www.w3.org/2001/XMLSchema-instance" xsi:noNamespaceSchemaLocation="http://sumo.dlr.de/xsd/routes_file.xsd">
    <vType id="passenger" vClass="passenger"/>
    <trip id="0" depart="0.00" from="315658884#3" to="315658897#1" type="passenger"/>
    <trip id="1" depart="1.78" from="-315658884#3" to="315658884#1" type="passenger"/>
    <trip id="2" depart="3.57" from="318747848#6" to="619147739#6" type="passenger"/>
    <trip id="3" depart="5.35" from="770860548#1" to="712288152#1" type="passenger"/>
    <trip id="4" depart="7.14" from="318747848#2" to="315658897#1" type="passenger"/>
    <trip id="5" depart="8.92" from="-315658897#0" to="778973690" type="passenger"/>
    <trip id="6" depart="10.70" from="770860548#0" to="-770860548#1" type="passenger"/>
    <trip id="7" depart="12.49" from="773060732#1" to="318747848#3" type="passenger"/>
    <trip id="8" depart="14.27" from="333557072#3" to="777881147#1" type="passenger"/>
    <trip id="9" depart="16.05" from="773060732#2" to="1339655667#0" type="passenger"/>
    <trip id="10" depart="17.84" from="318747848#4" to="428544127" type="passenger"/>
    <trip id="11" depart="19.62" from="351672100#0" to="1339697075#2" type="passenger"/>
    <trip id="12" depart="21.41" from="78628775#1" to="318747848#6" type="passenger"/>
    <trip id="13" depart="23.19" from="-318747848#5" to="315658897#0" type="passenger"/>
    <trip id="14" depart="24.97" from="619147739#1" to="-315658884#4" type="passenger"/>
    <trip id="15" depart="26.76" from="-315658897#2" to="-318747848#7" type="passenger"/>
    <trip id="16" depart="28.54" from="-315658897#2" to="379943753#1" type="passenger"/>
    <trip id="17" depart="30.33" from="-318747848#4" to="318747848#4" type="passenger"/>
    <trip id="18" depart="32.11" from="315658884#1" to="-315658884#4" type="passenger"/>
    <trip id="19" depart="33.89" from="78628775#2" to="-318747848#7" type="passenger"/>
    <trip id="20" depart="35.68" from="773060732#2" to="773060732#2" type="passenger"/>
    <trip id="21" depart="37.46" from="315658897#1" to="777881147#1" type="passenger"/>
    <trip id="22" depart="39.25" from="619147739#0" to="-318747848#3" type="passenger"/>
    <trip id="23" depart="41.03" from="333557072#2" to="-651818430" type="passenger"/>
    <trip id="24" depart="42.81" from="-37403486#2" to="-37403486#2" type="passenger"/>
    <trip id="25" depart="44.60" from="78628775#0" to="379943755#1" type="passenger"/>
    <trip id="26" depart="46.38" from="-651817398#1" to="315658884#4" type="passenger"/>
    <trip id="27" depart="48.16" from="-315658897#0" to="-315658884#3" type="passenger"/>
    <trip id="28" depart="49.95" from="318747848#2" to="777881144#1" type="passenger"/>
    <trip id="29" depart="51.73" from="770860549" to="78628770#1" type="passenger"/>
    <trip id="30" depart="53.52" from="351672100#4" to="-464763971" type="passenger"/>
    <trip id="31" depart="55.30" from="-712288152#0" to="-351672100#0" type="passenger"/>
    <trip id="32" depart="57.08" from="-712288152#0" to="428544127" type="passenger"/>
    <trip id="33" depart="58.87" from="-315658897#1" to="428544127" type="passenger"/>
    <trip id="34" depart="60.65" from="619147739#2" to="315658896#2" type="passenger"/>
    <trip id="35" depart="62.44" from="315658896#2" to="315658884#3" type="passenger"/>
    <trip id="36" depart="64.22" from="773060732#3" to="619147739#6" type="passenger"/>
    <trip id="37" depart="66.00" from="-651817398#0" to="777881147#1" type="passenger"/>
    <trip id="38" depart="67.79" from="-651817398#5" to="315658896#3" type="passenger"/>
    <trip id="39" depart="69.57" from="-712288152#0" to="-351672100#1" type="passenger"/>
    <trip id="40" depart="71.36" from="-651817398#3" to="315658896#1" type="passenger"/>
    <trip id="41" depart="73.14" from="318747848#4" to="-315658896#1" type="passenger"/>
    <trip id="42" depart="74.92" from="315658897#1" to="777881144#1" type="passenger"/>
    <trip id="43" depart="76.71" from="318747848#3" to="-351672100#0" type="passenger"/>
    <trip id="44" depart="78.49" from="315658884#1" to="315658884#4" type="passenger"/>
    <trip id="45" depart="80.27" from="-318747848#4" to="379943755#1" type="passenger"/>
    <trip id="46" depart="82.06" from="315658896#2" to="712288152#1" type="passenger"/>
    <trip id="47" depart="83.84" from="-770860548#1" to="379943753#1" type="passenger"/>
    <trip id="48" depart="85.63" from="-955312947" to="-315658884#4" type="passenger"/>
    <trip id="49" depart="87.41" from="773060732#1" to="777881145" type="passenger"/>
    <trip id="50" depart="89.19" from="770860548#1" to="379943753#1" type="passenger"/>
    <trip id="51" depart="90.98" from="712288152#2" to="315658896#3" type="passenger"/>
    <trip id="52" depart="92.76" from="-315658884#2" to="712288152#0" type="passenger"/>
    <trip id="53" depart="94.55" from="-318747848#4" to="315658884#3" type="passenger"/>
    <trip id="54" depart="96.33" from="315658884#4" to="-318747848#7" type="passenger"/>
    <trip id="55" depart="98.11" from="-770860565" to="-318747848#4" type="passenger"/>
    <trip id="56" depart="99.90" from="-315658897#2" to="-315658884#1" type="passenger"/>
    <trip id="57" depart="101.68" from="318747848#4" to="-315658897#1" type="passenger"/>
    <trip id="58" depart="103.47" from="-318747848#5" to="315658884#1" type="passenger"/>
    <trip id="59" depart="105.25" from="384030401#1" to="-464763971" type="passenger"/>
    <trip id="60" depart="107.03" from="379943753#1" to="318747848#7" type="passenger"/>
    <trip id="61" depart="108.82" from="777881144#0" to="712288152#0" type="passenger"/>
    <trip id="62" depart="110.60" from="821457682#1" to="1339697075#1" type="passenger"/>
    <trip id="63" depart="112.38" from="-712288152#2" to="1339697076#1" type="passenger"/>
    <trip id="64" depart="114.17" from="-315658884#3" to="619147739#3" type="passenger"/>
    <trip id="65" depart="115.95" from="-315658896#3" to="315658884#1" type="passenger"/>
    <trip id="66" depart="117.74" from="-651817398#5" to="778973690" type="passenger"/>
    <trip id="67" depart="119.52" from="-770860548#2" to="1339697074" type="passenger"/>
    <trip id="68" depart="121.30" from="-770860549" to="-318747848#7" type="passenger"/>
    <trip id="69" depart="123.09" from="-651817398#0" to="-318747848#7" type="passenger"/>
    <trip id="70" depart="124.87" from="773060732#2" to="315658884#3" type="passenger"/>
    <trip id="71" depart="126.66" from="315658884#1" to="318747848#6" type="passenger"/>
    <trip id="72" depart="128.44" from="1339697075#3" to="1339697075#6" type="passenger"/>
    <trip id="73" depart="130.22" from="777881144#0" to="-315658884#2" type="passenger"/>
    <trip id="74" depart="132.01" from="318747848#3" to="315658897#2" type="passenger"/>
    <trip id="75" depart="133.79" from="619147739#2" to="-315658884#1" type="passenger"/>
    <trip id="76" depart="135.58" from="315658884#3" to="619147739#5" type="passenger"/>
    <trip id="77" depart="137.36" from="-651817398#5" to="379943753#0" type="passenger"/>
    <trip id="78" depart="139.14" from="-712288152#0" to="-37403486#1" type="passenger"/>
    <trip id="79" depart="140.93" from="315658884#1" to="315658897#1" type="passenger"/>
    <trip id="80" depart="142.71" from="-315658896#2" to="-37403486#1" type="passenger"/>
    <trip id="81" depart="144.49" from="712288152#1" to="1339697075#1" type="passenger"/>
    <trip id="82" depart="146.28" from="821457682#0" to="1339697075#2" type="passenger"/>
    <trip id="83" depart="148.06" from="315658884#2" to="1339697075#1" type="passenger"/>
    <trip id="84" depart="149.85" from="-315658897#2" to="777881145" type="passenger"/>
    <trip id="85" depart="151.63" from="-712288152#2" to="-712288152#1" type="passenger"/>
    <trip id="86" depart="153.41" from="315658884#3" to="428544127" type="passenger"/>
    <trip id="87" depart="155.20" from="821457682#0" to="333557072#3" type="passenger"/>
    <trip id="88" depart="156.98" from="78628775#1" to="1339697074" type="passenger"/>
    <trip id="89" depart="158.77" from="770860548#0" to="428544127" type="passenger"/>
    <trip id="90" depart="160.55" from="-315658884#3" to="712288152#1" type="passenger"/>
    <trip id="91" depart="162.33" from="773060732#2" to="773060732#4" type="passenger"/>
    <trip id="92" depart="164.12" from="-955312947" to="619147739#3" type="passenger"/>
    <trip id="93" depart="165.90" from="712288152#2" to="315658884#3" type="passenger"/>
    <trip id="94" depart="167.69" from="37403486#2" to="1339697075#3" type="passenger"/>
    <trip id="95" depart="169.47" from="773060732#4" to="318747848#3" type="passenger"/>
    <trip id="96" depart="171.25" from="-651817398#3" to="315658884#1" type="passenger"/>
    <trip id="97" depart="173.04" from="333557072#3" to="1339697075#3" type="passenger"/>
    <trip id="98" depart="174.82" from="-770860565" to="315658897#0" type="passenger"/>
    <trip id="99" depart="176.60" from="-318747848#5" to="315658896#3" type="passenger"/>
    <trip id="100" depart="178.39" from="-778973690" to="1339697075#3" type="passenger"/>
    <trip id="101" depart="180.17" from="-651817398#0" to="-315658884#1" type="passenger"/>
    <trip id="102" depart="181.96" from="333557072#3" to="-315658884#4" type="passenger"/>
    <trip id="103" depart="183.74" from="333557072#1" to="777881144#1" type="passenger"/>
    <trip id="104" depart="185.52" from="-315658896#3" to="315658896#2" type="passenger"/>
    <trip id="105" depart="187.31" from="-318747848#7" to="-315658896#2" type="passenger"/>
    <trip id="106" depart="189.09" from="1339697076#1" to="1339697074" type="passenger"/>
    <trip id="107" depart="190.88" from="651817398#4" to="651817398#5" type="passenger"/>
    <trip id="108" depart="192.66" from="770860548#0" to="379943755#1" type="passenger"/>
    <trip id="109" depart="194.44" from="770860549" to="1339697074" type="passenger"/>
    <trip id="110" depart="196.23" from="619147739#3" to="315658897#2" type="passenger"/>
    <trip id="111" depart="198.01" from="-318747848#2" to="1339697074" type="passenger"/>
    <trip id="112" depart="199.80" from="619147739#4" to="-315658884#2" type="passenger"/>
    <trip id="113" depart="201.58" from="-651817398#3" to="-315658884#1" type="passenger"/>
    <trip id="114" depart="203.36" from="315658896#2" to="-37403486#2" type="passenger"/>
    <trip id="115" depart="205.15" from="318747848#6" to="-318747848#6" type="passenger"/>
    <trip id="116" depart="206.93" from="379943755#1" to="318747848#7" type="passenger"/>
    <trip id="117" depart="208.71" from="351672100#2" to="1339697075#1" type="passenger"/>
    <trip id="118" depart="210.50" from="821457682#0" to="770860548#2" type="passenger"/>
    <trip id="119" depart="212.28" from="773060732#1" to="778973690" type="passenger"/>
    <trip id="120" depart="214.07" from="1339655670" to="-351672100#0" type="passenger"/>
    <trip id="121" depart="215.85" from="318747848#5" to="315658896#1" type="passenger"/>
    <trip id="122" depart="217.63" from="773060732#4" to="384030395" type="passenger"/>
    <trip id="123" depart="219.42" from="318747848#3" to="1339697075#3" type="passenger"/>
    <trip id="124" depart="221.20" from="-651817398#0" to="315658884#4" type="passenger"/>
    <trip id="125" depart="222.99" from="78628775#0" to="-351672100#2" type="passenger"/>
    <trip id="126" depart="224.77" from="-651817398#5" to="-318747848#3" type="passenger"/>
    <trip id="127" depart="226.55" from="-318747848#2" to="712288152#2" type="passenger"/>
    <trip id="128" depart="228.34" from="-770860549" to="379943755#1" type="passenger"/>
    <trip id="129" depart="230.12" from="315658884#3" to="-315658884#3" type="passenger"/>
    <trip id="130" depart="231.91" from="-315658897#1" to="-318747848#7" type="passenger"/>
    <trip id="131" depart="233.69" from="712288152#0" to="428544127" type="passenger"/>
    <trip id="132" depart="235.47" from="773060732#1" to="1339655667#1" type="passenger"/>
    <trip id="133" depart="237.26" from="315658897#1" to="-315658884#2" type="passenger"/>
    <trip id="134" depart="239.04" from="-651817398#0" to="1339697075#5" type="passenger"/>
    <trip id="135" depart="240.82" from="-315658897#0" to="1339697076#0" type="passenger"/>
    <trip id="136" depart="242.61" from="-651817398#2" to="712288152#0" type="passenger"/>
    <trip id="137" depart="244.39" from="-315658896#2" to="-315658884#1" type="passenger"/>
    <trip id="138" depart="246.18" from="619147739#3" to="619147739#3" type="passenger"/>
    <trip id="139" depart="247.96" from="-651817398#2" to="-318747848#7" type="passenger"/>
    <trip id="140" depart="249.74" from="-318747848#5" to="1339655667#0" type="passenger"/>
    <trip id="141" depart="251.53" from="333557072#3" to="78628775#2" type="passenger"/>
    <trip id="142" depart="253.31" from="333557072#3" to="315658897#1" type="passenger"/>
    <trip id="143" depart="255.10" from="315658897#1" to="315658897#2" type="passenger"/>
    <trip id="144" depart="256.88" from="78628775#2" to="777881144#1" type="passenger"/>
    <trip id="145" depart="258.66" from="-770860548#2" to="-351672100#0" type="passenger"/>
    <trip id="146" depart="260.45" from="-651817398#1" to="1339697074" type="passenger"/>
    <trip id="147" depart="262.23" from="315658896#2" to="315658884#2" type="passenger"/>
    <trip id="148" depart="264.02" from="-315658884#2" to="-318747848#7" type="passenger"/>
    <trip id="149" depart="265.80" from="315658884#1" to="315658897#1" type="passenger"/>
    <trip id="150" depart="267.58" from="619147739#4" to="619147739#6" type="passenger"/>
    <trip id="151" depart="269.37" from="-770860548#1" to="315658897#2" type="passenger"/>
    <trip id="152" depart="271.15" from="770860548#0" to="619147739#4" type="passenger"/>
    <trip id="153" depart="272.93" from="-315658884#3" to="619147739#3" type="passenger"/>
    <trip id="154" depart="274.72" from="-315658896#3" to="-1339655670" type="passenger"/>
    <trip id="155" depart="276.50" from="-770860548#2" to="821457682#0" type="passenger"/>
    <trip id="156" depart="278.29" from="-651817398#0" to="315658897#2" type="passenger"/>
    <trip id="157" depart="280.07" from="-315658897#1" to="-315658884#3" type="passenger"/>
    <trip id="158" depart="281.85" from="-315658884#3" to="-315658884#1" type="passenger"/>
    <trip id="159" depart="283.64" from="318747848#4" to="619147739#6" type="passenger"/>
    <trip id="160" depart="285.42" from="78628775#0" to="778973690" type="passenger"/>
    <trip id="161" depart="287.21" from="770860548#0" to="770860565" type="passenger"/>
    <trip id="162" depart="288.99" from="78628775#0" to="-770860548#0" type="passenger"/>
    <trip id="163" depart="290.77" from="315658884#1" to="-318747848#7" type="passenger"/>
    <trip id="164" depart="292.56" from="-315658897#2" to="-315658896#1" type="passenger"/>
    <trip id="165" depart="294.34" from="-315658884#4" to="318747848#5" type="passenger"/>
    <trip id="166" depart="296.12" from="318747848#5" to="-351672100#4" type="passenger"/>
    <trip id="167" depart="297.91" from="-770860548#2" to="-318747848#5" type="passenger"/>
    <trip id="168" depart="299.69" from="712288152#1" to="1339697074" type="passenger"/>
    <trip id="169" depart="301.48" from="333557072#0" to="315658884#3" type="passenger"/>
    <trip id="170" depart="303.26" from="-315658884#4" to="318747848#5" type="passenger"/>
    <trip id="171" depart="305.04" from="-315658884#4" to="-384030401#1" type="passenger"/>
    <trip id="172" depart="306.83" from="770860548#0" to="1339655667#0" type="passenger"/>
    <trip id="173" depart="308.61" from="712288152#1" to="-315658884#1" type="passenger"/>
    <trip id="174" depart="310.40" from="-315658897#0" to="428544127" type="passenger"/>
    <trip id="175" depart="312.18" from="770860565" to="315658884#3" type="passenger"/>
    <trip id="176" depart="313.96" from="-315658897#2" to="-318747848#2" type="passenger"/>
    <trip id="177" depart="315.75" from="770860548#0" to="-770860548#1" type="passenger"/>
    <trip id="178" depart="317.53" from="-651817398#4" to="315658884#4" type="passenger"/>
    <trip id="179" depart="319.32" from="-712288152#0" to="1339655667#0" type="passenger"/>
    <trip id="180" depart="321.10" from="-770860549" to="315658884#1" type="passenger"/>
    <trip id="181" depart="322.88" from="-651817398#3" to="318747848#7" type="passenger"/>
    <trip id="182" depart="324.67" from="777881144#0" to="315658897#2" type="passenger"/>
    <trip id="183" depart="326.45" from="-315658896#2" to="-318747848#5" type="passenger"/>
    <trip id="184" depart="328.23" from="379943755#1" to="428544127" type="passenger"/>
    <trip id="185" depart="330.02" from="619147739#3" to="315658884#3" type="passenger"/>
    <trip id="186" depart="331.80" from="-315658884#3" to="619147739#4" type="passenger"/>
    <trip id="187" depart="333.59" from="379943753#1" to="1339697075#2" type="passenger"/>
    <trip id="188" depart="335.37" from="318747848#3" to="315658897#0" type="passenger"/>
    <trip id="189" depart="337.15" from="-315658897#1" to="315658897#1" type="passenger"/>
    <trip id="190" depart="338.94" from="318747848#5" to="-315658884#1" type="passenger"/>
    <trip id="191" depart="340.72" from="-318747848#3" to="315658884#2" type="passenger"/>
    <trip id="192" depart="342.51" from="770860565" to="712288152#1" type="passenger"/>
    <trip id="193" depart="344.29" from="315658897#0" to="619147739#5" type="passenger"/>
    <trip id="194" depart="346.07" from="773060732#1" to="1339697075#1" type="passenger"/>
    <trip id="195" depart="347.86" from="315658897#1" to="619147739#4" type="passenger"/>
    <trip id="196" depart="349.64" from="619147739#4" to="712288152#2" type="passenger"/>
    <trip id="197" depart="351.43" from="-315658897#2" to="379943755#1" type="passenger"/>
    <trip id="198" depart="353.21" from="-315658884#1" to="-315658897#0" type="passenger"/>
    <trip id="199" depart="354.99" from="-315658897#1" to="955312947" type="passenger"/>
    <trip id="200" depart="356.78" from="318747848#5" to="777881145" type="passenger"/>
    <trip id="201" depart="358.56" from="315658884#4" to="379943753#1" type="passenger"/>
    <trip id="202" depart="360.34" from="619147739#3" to="-315658896#1" type="passenger"/>
    <trip id="203" depart="362.13" from="-955312947" to="1339697075#4" type="passenger"/>
    <trip id="204" depart="363.91" from="770860548#1" to="379943753#1" type="passenger"/>
    <trip id="205" depart="365.70" from="1339655667#1" to="-351672100#2" type="passenger"/>
    <trip id="206" depart="367.48" from="315658896#1" to="318747848#7" type="passenger"/>
    <trip id="207" depart="369.26" from="384030401#1" to="384030401#1" type="passenger"/>
    <trip id="208" depart="371.05" from="-770860565" to="315658896#2" type="passenger"/>
    <trip id="209" depart="372.83" from="619147739#5" to="777881145" type="passenger"/>
    <trip id="210" depart="374.62" from="619147739#1" to="315658897#2" type="passenger"/>
    <trip id="211" depart="376.40" from="-315658884#3" to="315658884#4" type="passenger"/>
    <trip id="212" depart="378.18" from="315658897#0" to="318747848#6" type="passenger"/>
    <trip id="213" depart="379.97" from="318747848#6" to="315658884#4" type="passenger"/>
    <trip id="214" depart="381.75" from="-318747848#3" to="712288152#0" type="passenger"/>
    <trip id="215" depart="383.54" from="-651817398#5" to="1339697075#4" type="passenger"/>
    <trip id="216" depart="385.32" from="-770860549" to="1339697075#4" type="passenger"/>
    <trip id="217" depart="387.10" from="1339697075#3" to="1339697075#4" type="passenger"/>
    <trip id="218" depart="388.89" from="-651817398#4" to="-318747848#7" type="passenger"/>
    <trip id="219" depart="390.67" from="619147739#4" to="315658897#1" type="passenger"/>
    <trip id="220" depart="392.45" from="712288152#0" to="-464763971" type="passenger"/>
    <trip id="221" depart="394.24" from="821457682#1" to="-318747848#2" type="passenger"/>
    <trip id="222" depart="396.02" from="-955312947" to="315658897#2" type="passenger"/>
    <trip id="223" depart="397.81" from="777881144#1" to="777881147#1" type="passenger"/>
    <trip id="224" depart="399.59" from="315658897#0" to="318747848#7" type="passenger"/>
    <trip id="225" depart="401.37" from="-315658897#2" to="-351672100#1" type="passenger"/>
    <trip id="226" depart="403.16" from="-315658897#0" to="379943755#1" type="passenger"/>
    <trip id="227" depart="404.94" from="315658884#1" to="-384030401#1" type="passenger"/>
    <trip id="228" depart="406.73" from="-315658897#1" to="379943753#1" type="passenger"/>
    <trip id="229" depart="408.51" from="619147739#2" to="-384030401#0" type="passenger"/>
    <trip id="230" depart="410.29" from="-315658896#2" to="-464763971" type="passenger"/>
    <trip id="231" depart="412.08" from="-770860565" to="-770860548#0" type="passenger"/>
    <trip id="232" depart="413.86" from="333557072#3" to="-384030401#0" type="passenger"/>
    <trip id="233" depart="415.65" from="-712288152#1" to="1339697075#5" type="passenger"/>
    <trip id="234" depart="417.43" from="428544127" to="1339697075#3" type="passenger"/>
    <trip id="235" depart="419.21" from="619147739#5" to="315658897#2" type="passenger"/>
    <trip id="236" depart="421.00" from="773060732#1" to="-384030401#0" type="passenger"/>
    <trip id="237" depart="422.78" from="-315658896#2" to="777881147#1" type="passenger"/>
    <trip id="238" depart="424.56" from="315658884#3" to="315658884#1" type="passenger"/>
    <trip id="239" depart="426.35" from="318747848#4" to="379943753#0" type="passenger"/>
    <trip id="240" depart="428.13" from="379943753#1" to="379943753#1" type="passenger"/>
    <trip id="241" depart="429.92" from="773060732#1" to="318747848#4" type="passenger"/>
    <trip id="242" depart="431.70" from="770860565" to="-318747848#7" type="passenger"/>
    <trip id="243" depart="433.48" from="-318747848#4" to="-315658896#2" type="passenger"/>
    <trip id="244" depart="435.27" from="333557072#0" to="1339697075#3" type="passenger"/>
    <trip id="245" depart="437.05" from="619147739#3" to="315658884#2" type="passenger"/>
    <trip id="246" depart="438.84" from="315658884#2" to="428544127" type="passenger"/>
    <trip id="247" depart="440.62" from="-651817398#4" to="1339697075#5" type="passenger"/>
    <trip id="248" depart="442.40" from="318747848#4" to="1339697075#3" type="passenger"/>
    <trip id="249" depart="444.19" from="315658884#1" to="-1339655670" type="passenger"/>
    <trip id="250" depart="445.97" from="619147739#0" to="651817398#1" type="passenger"/>
    <trip id="251" depart="447.76" from="78628775#1" to="315658896#2" type="passenger"/>
    <trip id="252" depart="449.54" from="-315658897#0" to="1339697075#6" type="passenger"/>
    <trip id="253" depart="451.32" from="315658896#1" to="712288152#1" type="passenger"/>
    <trip id="254" depart="453.11" from="333557072#3" to="315658884#1" type="passenger"/>
    <trip id="255" depart="454.89" from="318747848#6" to="315658884#4" type="passenger"/>
    <trip id="256" depart="456.67" from="-315658884#4" to="-351672100#4" type="passenger"/>
    <trip id="257" depart="458.46" from="333557072#3" to="1339697075#1" type="passenger"/>
    <trip id="258" depart="460.24" from="712288152#2" to="1339655667#0" type="passenger"/>
    <trip id="259" depart="462.03" from="-770860548#2" to="318747848#7" type="passenger"/>
    <trip id="260" depart="463.81" from="-651817398#4" to="-351672100#4" type="passenger"/>
    <trip id="261" depart="465.59" from="318747848#7" to="428544127" type="passenger"/>
    <trip id="262" depart="467.38" from="821457682#0" to="315658896#3" type="passenger"/>
    <trip id="263" depart="469.16" from="712288152#2" to="-318747848#6" type="passenger"/>
    <trip id="264" depart="470.95" from="333557072#3" to="318747848#6" type="passenger"/>
    <trip id="265" depart="472.73" from="770860549" to="-351672100#4" type="passenger"/>
    <trip id="266" depart="474.51" from="1339655670" to="1339697075#3" type="passenger"/>
    <trip id="267" depart="476.30" from="333557072#1" to="318747848#6" type="passenger"/>
    <trip id="268" depart="478.08" from="-318747848#6" to="712288152#0" type="passenger"/>
    <trip id="269" depart="479.87" from="315658896#1" to="315658896#3" type="passenger"/>
    <trip id="270" depart="481.65" from="78628775#0" to="315658896#1" type="passenger"/>
    <trip id="271" depart="483.43" from="-318747848#2" to="379943753#1" type="passenger"/>
    <trip id="272" depart="485.22" from="-770860548#2" to="-315658897#1" type="passenger"/>
    <trip id="273" depart="487.00" from="78628775#2" to="619147739#6" type="passenger"/>
    <trip id="274" depart="488.78" from="773060732#2" to="1339655667#1" type="passenger"/>
    <trip id="275" depart="490.57" from="-651817398#5" to="777881145" type="passenger"/>
    <trip id="276" depart="492.35" from="315658884#2" to="-464763971" type="passenger"/>
    <trip id="277" depart="494.14" from="773060732#4" to="955312947" type="passenger"/>
    <trip id="278" depart="495.92" from="318747848#6" to="955312947" type="passenger"/>
    <trip id="279" depart="497.70" from="619147739#2" to="712288152#1" type="passenger"/>
    <trip id="280" depart="499.49" from="315658884#2" to="384030395" type="passenger"/>
    <trip id="281" depart="501.27" from="318747848#5" to="-315658884#3" type="passenger"/>
    <trip id="282" depart="503.06" from="619147739#1" to="777881147#1" type="passenger"/>
    <trip id="283" depart="504.84" from="712288152#2" to="428544127" type="passenger"/>
    <trip id="284" depart="506.62" from="773060732#0" to="315658884#3" type="passenger"/>
    <trip id="285" depart="508.41" from="-315658884#1" to="-315658897#0" type="passenger"/>
    <trip id="286" depart="510.19" from="770860548#2" to="333557072#5" type="passenger"/>
    <trip id="287" depart="511.98" from="-315658884#3" to="712288152#0" type="passenger"/>
    <trip id="288" depart="513.76" from="773060732#4" to="1339697075#6" type="passenger"/>
    <trip id="289" depart="515.54" from="773060732#3" to="1339697074" type="passenger"/>
    <trip id="290" depart="517.33" from="-315658884#3" to="-1339655670" type="passenger"/>
    <trip id="291" depart="519.11" from="379943753#0" to="-315658884#2" type="passenger"/>
    <trip id="292" depart="520.89" from="315658896#2" to="619147739#3" type="passenger"/>
    <trip id="293" depart="522.68" from="770860548#0" to="379943753#1" type="passenger"/>
    <trip id="294" depart="524.46" from="-651817398#3" to="315658884#2" type="passenger"/>
    <trip id="295" depart="526.25" from="821457682#0" to="315658897#1" type="passenger"/>
    <trip id="296" depart="528.03" from="770860548#1" to="318747848#6" type="passenger"/>
    <trip id="297" depart="529.81" from="315658884#4" to="712288152#2" type="passenger"/>
    <trip id="298" depart="531.60" from="-651817398#1" to="1339697075#6" type="passenger"/>
    <trip id="299" depart="533.38" from="770860565" to="1339697075#6" type="passenger"/>
    <trip id="300" depart="535.17" from="-770860565" to="1339697075#4" type="passenger"/>
    <trip id="301" depart="536.95" from="-651817398#4" to="-37403486#1" type="passenger"/>
    <trip id="302" depart="538.73" from="333557072#1" to="-37403486#2" type="passenger"/>
    <trip id="303" depart="540.52" from="-651817398#4" to="-651817398#3" type="passenger"/>
    <trip id="304" depart="542.30" from="318747848#3" to="712288152#0" type="passenger"/>
    <trip id="305" depart="544.09" from="315658884#3" to="-318747848#6" type="passenger"/>
    <trip id="306" depart="545.87" from="712288152#0" to="315658896#3" type="passenger"/>
    <trip id="307" depart="547.65" from="333557072#2" to="318747848#3" type="passenger"/>
    <trip id="308" depart="549.44" from="-712288152#0" to="384030395" type="passenger"/>
    <trip id="309" depart="551.22" from="-770860548#2" to="1339697074" type="passenger"/>
    <trip id="310" depart="553.00" from="318747848#2" to="1339697075#6" type="passenger"/>
    <trip id="311" depart="554.79" from="333557072#3" to="-315658884#1" type="passenger"/>
    <trip id="312" depart="556.57" from="821457682#0" to="619147739#5" type="passenger"/>
    <trip id="313" depart="558.36" from="315658897#0" to="1339697075#3" type="passenger"/>
    <trip id="314" depart="560.14" from="-318747848#2" to="1339655667#0" type="passenger"/>
    <trip id="315" depart="561.92" from="318747848#3" to="1339697075#2" type="passenger"/>
    <trip id="316" depart="563.71" from="773060732#3" to="712288152#2" type="passenger"/>
    <trip id="317" depart="565.49" from="619147739#0" to="619147739#5" type="passenger"/>
    <trip id="318" depart="567.28" from="333557072#1" to="384030395" type="passenger"/>
    <trip id="319" depart="569.06" from="619147739#5" to="379943753#1" type="passenger"/>
    <trip id="320" depart="570.84" from="773060732#3" to="-464763971" type="passenger"/>
    <trip id="321" depart="572.63" from="333557072#1" to="333557072#3" type="passenger"/>
    <trip id="322" depart="574.41" from="-770860548#2" to="-315658897#1" type="passenger"/>
    <trip id="323" depart="576.19" from="-651817398#2" to="777881147#1" type="passenger"/>