<?xml version="1.0" encoding="UTF-8"?>

<!-- generated on 2026-04-17 00:36:36.436620 by Eclipse SUMO randomTrips.py v1.26.0
<configuration>
    <net-file value="/Users/junlee/Desktop/2026-1/js/result/report_commute_peak_tradeoff_top12_seed12_30min/sumo_nets/cw_23040/network.net.xml"/>
    <output-trip-file value="/Users/junlee/Desktop/2026-1/js/result/report_commute_peak_tradeoff_top12_seed12_30min/sumo_nets/cw_23040/routes_seed46.trips.xml"/>
    <route-file value="/Users/junlee/Desktop/2026-1/js/result/report_commute_peak_tradeoff_top12_seed12_30min/sumo_nets/cw_23040/routes_seed46.rou.xml"/>
    <vehicle-class value="passenger"/>
    <seed value="46"/>
    <end value="1800.0"/>
    <period value="1.7849466665759637"/>
</configuration>
-->

<routes xmlns:xsi="http://www.w3.org/2001/XMLSchema-instance" xsi:noNamespaceSchemaLocation="http://sumo.dlr.de/xsd/routes_file.xsd">
    <vType id="passenger" vClass="passenger"/>
    <trip id="0" depart="0.00" from="585352852#0-AddedOffRampEdge" to="1206223946#1" type="passenger"/>
    <trip id="1" depart="1.78" from="615671505#0" to="331990404#3" type="passenger"/>
    <trip id="2" depart="3.57" from="-376666921" to="767111811#2" type="passenger"/>
    <trip id="3" depart="5.35" from="218962181" to="-376666931#2" type="passenger"/>
    <trip id="4" depart="7.14" from="384030401#0" to="333554718" type="passenger"/>
    <trip id="5" depart="8.92" from="-376666930#0" to="-384030401#1" type="passenger"/>
    <trip id="6" depart="10.71" from="224260190#0" to="464445692#1" type="passenger"/>
    <trip id="7" depart="12.49" from="-516163750#0" to="-376666930#1" type="passenger"/>
    <trip id="8" depart="14.28" from="464445691#0" to="-376666932#1" type="passenger"/>
    <trip id="9" depart="16.06" from="376666931#0" to="-376666916#0" type="passenger"/>
    <trip id="10" depart="17.85" from="-516163750#1" to="-376666930#2" type="passenger"/>
    <trip id="11" depart="19.63" from="331990404#1" to="1206220504#1" type="passenger"/>
    <trip id="12" depart="21.42" from="384030401#0" to="376666916#1" type="passenger"/>
    <trip id="13" depart="23.20" from="331990404#0" to="-376666916#0" type="passenger"/>
    <trip id="14" depart="24.99" from="-376666931#4" to="-1339655668" type="passenger"/>
    <trip id="15" depart="26.77" from="376666931#4" to="-376666932#0" type="passenger"/>
    <trip id="16" depart="28.56" from="-631259844" to="376666916#1" type="passenger"/>
    <trip id="17" depart="30.34" from="376666930#1" to="-224260190#1" type="passenger"/>
    <trip id="18" depart="32.13" from="376666930#1" to="-376666931#0" type="passenger"/>
    <trip id="19" depart="33.91" from="1206220503#0" to="464445692#1" type="passenger"/>
    <trip id="20" depart="35.70" from="516163750#0" to="464445691#0" type="passenger"/>
    <trip id="21" depart="37.48" from="1339655669" to="384030401#1" type="passenger"/>
    <trip id="22" depart="39.27" from="-224260190#2" to="-224260190#2" type="passenger"/>
    <trip id="23" depart="41.05" from="376666932#0" to="619147740" type="passenger"/>
    <trip id="24" depart="42.84" from="615671505#0" to="-376666916#0" type="passenger"/>
    <trip id="25" depart="44.62" from="-631259844" to="37402371" type="passenger"/>
    <trip id="26" depart="46.41" from="-516163750#0" to="-224260190#2" type="passenger"/>
    <trip id="27" depart="48.19" from="615671505#0" to="585341907#2" type="passenger"/>
    <trip id="28" depart="49.98" from="376666916#0" to="384030401#2" type="passenger"/>
    <trip id="29" depart="51.76" from="-224260190#0" to="631259844" type="passenger"/>
    <trip id="30" depart="53.55" from="-376666931#3" to="-1339655668" type="passenger"/>
    <trip id="31" depart="55.33" from="376666930#2" to="464445691#0" type="passenger"/>
    <trip id="32" depart="57.12" from="376666931#4" to="-376666921" type="passenger"/>
    <trip id="33" depart="58.90" from="-464445691#0" to="333554718" type="passenger"/>
    <trip id="34" depart="60.69" from="376666916#0" to="464445691#1" type="passenger"/>
    <trip id="35" depart="62.47" from="-384030401#1" to="1206220503#1" type="passenger"/>
    <trip id="36" depart="64.26" from="-464445691#3" to="376666930#2" type="passenger"/>
    <trip id="37" depart="66.04" from="-516163750#1" to="-376666930#2" type="passenger"/>
    <trip id="38" depart="67.83" from="-651817398#2" to="-651817398#2" type="passenger"/>
    <trip id="39" depart="69.61" from="376666930#0" to="778973690" type="passenger"/>
    <trip id="40" depart="71.40" from="615671505#0" to="224260190#2" type="passenger"/>
    <trip id="41" depart="73.18" from="224260190#2" to="-376666931#4" type="passenger"/>
    <trip id="42" depart="74.97" from="376666931#3" to="516163750#0" type="passenger"/>
    <trip id="43" depart="76.75" from="-376666930#1" to="376666932#1" type="passenger"/>
    <trip id="44" depart="78.54" from="464445691#1" to="-224260190#1" type="passenger"/>
    <trip id="45" depart="80.32" from="464445692#1" to="585341907#0" type="passenger"/>
    <trip id="46" depart="82.11" from="-376666916#1" to="376666930#1" type="passenger"/>
    <trip id="47" depart="83.89" from="-376666930#2" to="376666916#1" type="passenger"/>
    <trip id="48" depart="85.68" from="-516163750#1" to="224260190#2" type="passenger"/>
    <trip id="49" depart="87.46" from="376666921" to="464445692#1" type="passenger"/>
    <trip id="50" depart="89.25" from="1339655669" to="-376666931#2" type="passenger"/>
    <trip id="51" depart="91.03" from="778973690" to="1206220503#1" type="passenger"/>
    <trip id="52" depart="92.82" from="464445691#0" to="384030401#2" type="passenger"/>
    <trip id="53" depart="94.60" from="218962181" to="-224260190#2" type="passenger"/>
    <trip id="54" depart="96.39" from="1339655668" to="-1339655669" type="passenger"/>
    <trip id="55" depart="98.17" from="615671505#0" to="585341906#2" type="passenger"/>
    <trip id="56" depart="99.96" from="778973690" to="464445692#0" type="passenger"/>
    <trip id="57" depart="101.74" from="464445691#0" to="-376666930#2" type="passenger"/>
    <trip id="58" depart="103.53" from="-376666932#1" to="585341907#0" type="passenger"/>
    <trip id="59" depart="105.31" from="1206220503#1" to="767111811#2" type="passenger"/>
    <trip id="60" depart="107.10" from="-376666931#3" to="-376666921" type="passenger"/>
    <trip id="61" depart="108.88" from="-376666916#0" to="-376666931#0" type="passenger"/>
    <trip id="62" depart="110.67" from="-516163750#0" to="-1339655669" type="passenger"/>
    <trip id="63" depart="112.45" from="224260190#2" to="-516163750#0" type="passenger"/>
    <trip id="64" depart="114.24" from="-778973690" to="384030401#0" type="passenger"/>
    <trip id="65" depart="116.02" from="585352852#0" to="585341906#2" type="passenger"/>
    <trip id="66" depart="117.81" from="224260190#0" to="585341907#2" type="passenger"/>
    <trip id="67" depart="119.59" from="-631259843" to="376666930#1" type="passenger"/>
    <trip id="68" depart="121.38" from="-516163750#1" to="619147740" type="passenger"/>
    <trip id="69" depart="123.16" from="1206220503#0" to="-224260190#1" type="passenger"/>
    <trip id="70" depart="124.95" from="464445691#0" to="-376666931#2" type="passenger"/>
    <trip id="71" depart="126.73" from="585341906#2" to="585341906#2" type="passenger"/>
    <trip id="72" depart="128.52" from="585352852#0" to="-224260190#2" type="passenger"/>
    <trip id="73" depart="130.30" from="-631259844" to="-224260190#2" type="passenger"/>
    <trip id="74" depart="132.09" from="-224260190#2" to="219696191#0" type="passenger"/>
    <trip id="75" depart="133.87" from="-778973690" to="333554718" type="passenger"/>
    <trip id="76" depart="135.66" from="376666931#0" to="-376666930#1" type="passenger"/>
    <trip id="77" depart="137.44" from="-376666932#1" to="384030401#0" type="passenger"/>
    <trip id="78" depart="139.23" from="585352852#0" to="464445691#0" type="passenger"/>
    <trip id="79" depart="141.01" from="516163750#1" to="464445691#3" type="passenger"/>
    <trip id="80" depart="142.80" from="224260190#0" to="-376666932#1" type="passenger"/>
    <trip id="81" depart="144.58" from="615671505#0" to="376666916#0" type="passenger"/>
    <trip id="82" depart="146.37" from="-516163750#1" to="516163750#0" type="passenger"/>
    <trip id="83" depart="148.15" from="331990404#3" to="-376666921" type="passenger"/>
    <trip id="84" depart="149.94" from="1339655668" to="376666930#0" type="passenger"/>
    <trip id="85" depart="151.72" from="1206220504#1" to="376666916#1" type="passenger"/>
    <trip id="86" depart="153.51" from="464445691#0" to="631259844" type="passenger"/>
    <trip id="87" depart="155.29" from="331990404#3" to="-376666931#1" type="passenger"/>
    <trip id="88" depart="157.08" from="376666930#0" to="224260190#3" type="passenger"/>
    <trip id="89" depart="158.86" from="778973690" to="-376666931#4" type="passenger"/>
    <trip id="90" depart="160.65" from="1206220503#1" to="-376666932#1" type="passenger"/>
    <trip id="91" depart="162.43" from="-631259843" to="219696191#1" type="passenger"/>
    <trip id="92" depart="164.22" from="-376666930#0" to="767111811#1" type="passenger"/>
    <trip id="93" depart="166.00" from="376666931#4" to="376666916#1" type="passenger"/>
    <trip id="94" depart="167.78" from="-516163750#1" to="778973690" type="passenger"/>
    <trip id="95" depart="169.57" from="376666931#0" to="1206220503#0" type="passenger"/>
    <trip id="96" depart="171.35" from="778973690" to="384030401#1" type="passenger"/>
    <trip id="97" depart="173.14" from="-384030401#2" to="585341907#2" type="passenger"/>
    <trip id="98" depart="174.92" from="-376666930#2" to="585341907#2" type="passenger"/>
    <trip id="99" depart="176.71" from="1339655669" to="-224260190#0" type="passenger"/>
    <trip id="100" depart="178.49" from="1206220504#1" to="-224260190#0" type="passenger"/>
    <trip id="101" depart="180.28" from="516163750#1" to="464445692#0" type="passenger"/>
    <trip id="102" depart="182.06" from="-376666930#2" to="767111811#1" type="passenger"/>
    <trip id="103" depart="183.85" from="464445692#1" to="-376666931#4" type="passenger"/>
    <trip id="104" depart="185.63" from="1339655669" to="376666916#2" type="passenger"/>
    <trip id="105" depart="187.42" from="585352852#0-AddedOffRampEdge" to="-376666931#3" type="passenger"/>
    <trip id="106" depart="189.20" from="464445691#1" to="1339655668" type="passenger"/>
    <trip id="107" depart="190.99" from="-376666931#4" to="619147740" type="passenger"/>
    <trip id="108" depart="192.77" from="464445691#0" to="516163750#1" type="passenger"/>
    <trip id="109" depart="194.56" from="516163750#0" to="631259844" type="passenger"/>
    <trip id="110" depart="196.34" from="331990404#0" to="1339655668" type="passenger"/>
    <trip id="111" depart="198.13" from="585352852#0-AddedOffRampEdge" to="-376666931#0" type="passenger"/>
    <trip id="112" depart="199.91" from="1339655669" to="-384030401#1" type="passenger"/>
    <trip id="113" depart="201.70" from="585352852#0" to="913268036" type="passenger"/>
    <trip id="114" depart="203.48" from="376666932#1" to="384030401#0" type="passenger"/>
    <trip id="115" depart="205.27" from="224260190#0" to="376666931#3" type="passenger"/>
    <trip id="116" depart="207.05" from="615671505#0" to="-376666930#2" type="passenger"/>
    <trip id="117" depart="208.84" from="224260190#0" to="-376666931#0" type="passenger"/>
    <trip id="118" depart="210.62" from="-464445691#0" to="585341907#0" type="passenger"/>
    <trip id="119" depart="212.41" from="376666931#2" to="-376666930#1" type="passenger"/>
    <trip id="120" depart="214.19" from="376666930#0" to="1339655668" type="passenger"/>
    <trip id="121" depart="215.98" from="376666932#1" to="516163750#0" type="passenger"/>
    <trip id="122" depart="217.76" from="913268036" to="767111811#1" type="passenger"/>
    <trip id="123" depart="219.55" from="-464445691#0" to="585341906#2" type="passenger"/>
    <trip id="124" depart="221.33" from="-376666916#2" to="631259843" type="passenger"/>
    <trip id="125" depart="223.12" from="-376666916#2" to="333554718" type="passenger"/>
    <trip id="126" depart="224.90" from="585352852#1" to="376666930#1" type="passenger"/>
    <trip id="127" depart="226.69" from="-376666932#1" to="384030401#2" type="passenger"/>
    <trip id="128" depart="228.47" from="464445691#1" to="-376666931#0" type="passenger"/>
    <trip id="129" depart="230.26" from="-376666916#2" to="-1339655668" type="passenger"/>
    <trip id="130" depart="232.04" from="1206220504#1" to="464445691#1" type="passenger"/>
    <trip id="131" depart="233.83" from="1206220503#0" to="-516163750#0" type="passenger"/>
    <trip id="132" depart="235.61" from="376666932#0" to="224260190#3" type="passenger"/>
    <trip id="133" depart="237.40" from="1206220504#0" to="1206220504#0" type="passenger"/>
    <trip id="134" depart="239.18" from="1206220504#1" to="631259844" type="passenger"/>
    <trip id="135" depart="240.97" from="376666931#0" to="1339655668" type="passenger"/>
    <trip id="136" depart="242.75" from="331990404#1" to="-224260190#2" type="passenger"/>
    <trip id="137" depart="244.54" from="-384030401#0" to="-1339655668" type="passenger"/>
    <trip id="138" depart="246.32" from="-376666921" to="464445692#1" type="passenger"/>
    <trip id="139" depart="248.11" from="516163750#1" to="-384030401#0" type="passenger"/>
    <trip id="140" depart="249.89" from="-224260190#2" to="384030401#1" type="passenger"/>
    <trip id="141" depart="251.68" from="331990404#3" to="-224260190#2" type="passenger"/>
    <trip id="142" depart="253.46" from="376666930#1" to="585341907#2" type="passenger"/>
    <trip id="143" depart="255.25" from="-224260190#1" to="464445692#1" type="passenger"/>
    <trip id="144" depart="257.03" from="1206220503#0" to="1206220503#0" type="passenger"/>
    <trip id="145" depart="258.82" from="516163750#0" to="224260190#1" type="passenger"/>
    <trip id="146" depart="260.60" from="376666931#0" to="-376666931#0" type="passenger"/>
    <trip id="147" depart="262.39" from="376666930#0" to="464445691#1" type="passenger"/>
    <trip id="148" depart="264.17" from="-224260190#2" to="224260190#2" type="passenger"/>
    <trip id="149" depart="265.96" from="376666931#1" to="464445691#3" type="passenger"/>
    <trip id="150" depart="267.74" from="-376666930#2" to="376666921" type="passenger"/>
    <trip id="151" depart="269.53" from="1206220503#1" to="-376666931#1" type="passenger"/>
    <trip id="152" depart="271.31" from="331990404#0" to="-1339655668" type="passenger"/>
    <trip id="153" depart="273.10" from="-384030401#2" to="464445692#1" type="passenger"/>
    <trip id="154" depart="274.88" from="-516163750#1" to="-376666916#0" type="passenger"/>
    <trip id="155" depart="276.67" from="-376666921" to="1206223946#1" type="passenger"/>
    <trip id="156" depart="278.45" from="-778973690" to="631259844" type="passenger"/>
    <trip id="157" depart="280.24" from="224260190#2" to="376666931#4" type="passenger"/>
    <trip id="158" depart="282.02" from="464445691#1" to="-376666932#1" type="passenger"/>
    <trip id="159" depart="283.81" from="-224260190#0" to="-376666931#2" type="passenger"/>
    <trip id="160" depart="285.59" from="1206220503#0" to="384030401#1" type="passenger"/>
    <trip id="161" depart="287.38" from="331990404#0" to="-376666916#0" type="passenger"/>
    <trip id="162" depart="289.16" from="-224260190#1" to="585341906#2" type="passenger"/>
    <trip id="163" depart="290.95" from="585352852#0-AddedOffRampEdge" to="585352852#1" type="passenger"/>
    <trip id="164" depart="292.73" from="1339655668" to="1206220503#0" type="passenger"/>
    <trip id="165" depart="294.52" from="-464445691#3" to="464445691#3" type="passenger"/>
    <trip id="166" depart="296.30" from="-376666916#2" to="376666921" type="passenger"/>
    <trip id="167" depart="298.09" from="-464445691#3" to="516163750#1" type="passenger"/>
    <trip id="168" depart="299.87" from="224260190#2" to="376666932#1" type="passenger"/>
    <trip id="169" depart="301.66" from="-376666931#3" to="-376666930#0" type="passenger"/>
    <trip id="170" depart="303.44" from="-384030401#0" to="516163750#0" type="passenger"/>
    <trip id="171" depart="305.23" from="913268036" to="464445691#1" type="passenger"/>
    <trip id="172" depart="307.01" from="384030401#1" to="219696191#1" type="passenger"/>
    <trip id="173" depart="308.80" from="384030401#0" to="778973690" type="passenger"/>
    <trip id="174" depart="310.58" from="376666930#2" to="-516163750#1" type="passenger"/>
    <trip id="175" depart="312.37" from="-224260190#1" to="376666931#3" type="passenger"/>
    <trip id="176" depart="314.15" from="218962181" to="384030401#2" type="passenger"/>
    <trip id="177" depart="315.94" from="376666930#1" to="224260190#1" type="passenger"/>
    <trip id="178" depart="317.72" from="1206220507#0" to="-376666916#0" type="passenger"/>
    <trip id="179" depart="319.51" from="1339655669" to="376666930#2" type="passenger"/>
    <trip id="180" depart="321.29" from="1339655669" to="224260190#2" type="passenger"/>
    <trip id="181" depart="323.08" from="376666916#0" to="516163750#1" type="passenger"/>
    <trip id="182" depart="324.86" from="376666932#1" to="384030401#0" type="passenger"/>
    <trip id="183" depart="326.65" from="516163750#0" to="-516163750#0" type="passenger"/>
    <trip id="184" depart="328.43" from="1339655668" to="-384030401#1" type="passenger"/>
    <trip id="185" depart="330.22" from="376666931#3" to="-376666930#0" type="passenger"/>
    <trip id="186" depart="332.00" from="464445691#0" to="516163750#1" type="passenger"/>
    <trip id="187" depart="333.79" from="376666930#1" to="1339655668" type="passenger"/>
    <trip id="188" depart="335.57" from="464445692#1" to="376666921" type="passenger"/>
    <trip id="189" depart="337.35" from="376666916#0" to="-376666932#0" type="passenger"/>
    <trip id="190" depart="339.14" from="376666931#2" to="-376666930#1" type="passenger"/>
    <trip id="191" depart="340.92" from="516163750#0" to="-376666931#2" type="passenger"/>
    <trip id="192" depart="342.71" from="-376666930#2" to="1206220503#1" type="passenger"/>
    <trip id="193" depart="344.49" from="-778973690" to="464445692#1" type="passenger"/>
    <trip id="194" depart="346.28" from="-384030401#2" to="376666916#1" type="passenger"/>
    <trip id="195" depart="348.06" from="-464445691#3" to="464445692#1" type="passenger"/>
    <trip id="196" depart="349.85" from="516163750#1" to="-1339655668" type="passenger"/>
    <trip id="197" depart="351.63" from="-1339655668" to="1206220503#0" type="passenger"/>
    <trip id="198" depart="353.42" from="376666932#1" to="376666930#1" type="passenger"/>
    <trip id="199" depart="355.20" from="331990404#1" to="631259844" type="passenger"/>
    <trip id="200" depart="356.99" from="-1339655668" to="224260190#2" type="passenger"/>
    <trip id="201" depart="358.77" from="464445691#1" to="-376666931#4" type="passenger"/>
    <trip id="202" depart="360.56" from="516163750#1" to="-376666930#1" type="passenger"/>
    <trip id="203" depart="362.34" from="1206220503#0" to="376666930#1" type="passenger"/>
    <trip id="204" depart="364.13" from="-384030401#1" to="778973690" type="passenger"/>
    <trip id="205" depart="365.91" from="-376666930#0" to="376666921" type="passenger"/>
    <trip id="206" depart="367.70" from="1206220504#0" to="224260190#3" type="passenger"/>
    <trip id="207" depart="369.48" from="-376666916#0" to="-224260190#1" type="passenger"/>
    <trip id="208" depart="371.27" from="585352852#0" to="376666930#0" type="passenger"/>
    <trip id="209" depart="373.05" from="-384030401#2" to="767111811#2" type="passenger"/>
    <trip id="210" depart="374.84" from="384030401#0" to="224260190#3" type="passenger"/>
    <trip id="211" depart="376.62" from="-224260190#3" to="1206223946#1" type="passenger"/>
    <trip id="212" depart="378.41" from="1206220503#0" to="384030401#0" type="passenger"/>
    <trip id="213" depart="380.19" from="218962181" to="-1339655668" type="passenger"/>
    <trip id="214" depart="381.98" from="-224260190#3" to="1206220503#1" type="passenger"/>
    <trip id="215" depart="383.76" from="1339655669" to="1206223946#1" type="passenger"/>
    <trip id="216" depart="385.55" from="-464445691#3" to="224260190#3" type="passenger"/>
    <trip id="217" depart="387.33" from="-376666932#1" to="-516163750#0" type="passenger"/>
    <trip id="218" depart="389.12" from="778973690" to="464445691#1" type="passenger"/>
    <trip id="219" depart="390.90" from="464445691#1" to="-376666931#0" type="passenger"/>
    <trip id="220" depart="392.69" from="516163750#1" to="-376666931#1" type="passenger"/>
    <trip id="221" depart="394.47" from="384030401#0" to="767111811#2" type="passenger"/>
    <trip id="222" depart="396.26" from="218962181" to="384030401#0" type="passenger"/>
    <trip id="223" depart="398.04" from="464445691#1" to="585341906#2" type="passenger"/>
    <trip id="224" depart="399.83" from="-384030401#0" to="1206220503#0" type="passenger"/>
    <trip id="225" depart="401.61" from="-384030401#1" to="-516163750#0" type="passenger"/>
    <trip id="226" depart="403.40" from="376666931#1" to="37402371" type="passenger"/>
    <trip id="227" depart="405.18" from="376666921" to="384030401#0" type="passenger"/>
    <trip id="228" depart="406.97" from="1206220503#0" to="376666932#1" type="passenger"/>
    <trip id="229" depart="408.75" from="218962181" to="-376666930#2" type="passenger"/>
    <trip id="230" depart="410.54" from="-516163750#0" to="767111811#2" type="passenger"/>
    <trip id="231" depart="412.32" from="376666931#3" to="464445692#1" type="passenger"/>
    <trip id="232" depart="414.11" from="778973690" to="-384030401#1" type="passenger"/>
    <trip id="233" depart="415.89" from="376666931#0" to="-376666931#0" type="passenger"/>
    <trip id="234" depart="417.68" from="-224260190#0" to="1339655668" type="passenger"/>
    <trip id="235" depart="419.46" from="1206220507#0" to="224260190#0" type="passenger"/>
    <trip id="236" depart="421.25" from="778973690" to="-1339655668" type="passenger"/>
    <trip id="237" depart="423.03" from="778973690" to="384030401#0" type="passenger"/>
    <trip id="238" depart="424.82" from="224260190#0" to="-384030401#1" type="passenger"/>
    <trip id="239" depart="426.60" from="376666931#3" to="-778973690" type="passenger"/>
    <trip id="240" depart="428.39" from="331990404#0" to="384030401#2" type="passenger"/>
    <trip id="241" depart="430.17" from="-631259843" to="376666932#1" type="passenger"/>
    <trip id="242" depart="431.96" from="1339655668" to="384030401#0" type="passenger"/>
    <trip id="243" depart="433.74" from="376666931#2" to="-376666932#1" type="passenger"/>
    <trip id="244" depart="435.53" from="384030401#1" to="-376666931#0" type="passenger"/>
    <trip id="245" depart="437.31" from="376666931#2" to="-224260190#1" type="passenger"/>
    <trip id="246" depart="439.10" from="331990404#1" to="376666931#3" type="passenger"/>
    <trip id="247" depart="440.88" from="-384030401#1" to="219696191#1" type="passenger"/>
    <trip id="248" depart="442.67" from="1206220503#0" to="376666930#1" type="passenger"/>
    <trip id="249" depart="444.45" from="585352852#0-AddedOffRampEdge" to="-384030401#1" type="passenger"/>
    <trip id="250" depart="446.24" from="464445691#0" to="-778973690" type="passenger"/>
    <trip id="251" depart="448.02" from="585352852#1" to="464445692#1" type="passenger"/>
    <trip id="252" depart="449.81" from="516163750#1" to="-224260190#2" type="passenger"/>
    <trip id="253" depart="451.59" from="-376666930#0" to="-376666916#0" type="passenger"/>
    <trip id="254" depart="453.38" from="-384030401#1" to="-376666931#3" type="passenger"/>
    <trip id="255" depart="455.16" from="464445691#1" to="-376666916#0" type="passenger"/>
    <trip id="256" depart="456.95" from="-778973690" to="585341906#0" type="passenger"/>
    <trip id="257" depart="458.73" from="-631259843" to="-384030401#0" type="passenger"/>
    <trip id="258" depart="460.52" from="331990404#1" to="224260190#0" type="passenger"/>
    <trip id="259" depart="462.30" from="-516163750#1" to="464445692#1" type="passenger"/>
    <trip id="260" depart="464.09" from="376666931#0" to="516163750#0" type="passenger"/>
    <trip id="261" depart="465.87" from="-376666930#0" to="-376666921" type="passenger"/>
    <trip id="262" depart="467.66" from="384030401#1" to="585341907#0" type="passenger"/>
    <trip id="263" depart="469.44" from="1339655669" to="464445691#1" type="passenger"/>
    <trip id="264" depart="471.23" from="376666931#3" to="384030401#0" type="passenger"/>
    <trip id="265" depart="473.01" from="376666916#0" to="-224260190#2" type="passenger"/>
    <trip id="266" depart="474.80" from="331990404#0" to="464445692#1" type="passenger"/>
    <trip id="267" depart="476.58" from="-384030401#2" to="376666916#2" type="passenger"/>
    <trip id="268" depart="478.37" from="384030401#0" to="-376666931#0" type="passenger"/>
    <trip id="269" depart="480.15" from="-464445691#0" to="585341907#2" type="passenger"/>
    <trip id="270" depart="481.94" from="516163750#0" to="224260190#1" type="passenger"/>
    <trip id="271" depart="483.72" from="-631259843" to="-376666931#2" type="passenger"/>
    <trip id="272" depart="485.51" from="-516163750#1" to="-376666931#1" type="passenger"/>
    <trip id="273" depart="487.29" from="-376666931#4" to="-376666931#4" type="passenger"/>
    <trip id="274" depart="489.08" from="376666930#0" to="767111811#1" type="passenger"/>
    <trip id="275" depart="490.86" from="-376666916#2" to="516163750#1" type="passenger"/>
    <trip id="276" depart="492.65" from="-1339655668" to="219696191#0" type="passenger"/>
    <trip id="277" depart="494.43" from="376666930#2" to="-224260190#2" type="passenger"/>
    <trip id="278" depart="496.22" from="376666932#0" to="376666916#2" type="passenger"/>
    <trip id="279" depart="498.00" from="-376666930#2" to="585341907#0" type="passenger"/>
    <trip id="280" depart="499.79" from="224260190#1" to="376666930#1" type="passenger"/>
    <trip id="281" depart="501.57" from="516163750#0" to="-384030401#1" type="passenger"/>
    <trip id="282" depart="503.35" from="-631259844" to="767111811#1" type="passenger"/>
    <trip id="283" depart="505.14" from="1206220504#0" to="631259844" type="passenger"/>
    <trip id="284" depart="506.92" from="-224260190#0" to="-376666932#1" type="passenger"/>
    <trip id="285" depart="508.71" from="585352852#0" to="1206220503#1" type="passenger"/>
    <trip id="286" depart="510.49" from="-376666932#1" to="464445691#0" type="passenger"/>
    <trip id="287" depart="512.28" from="-376666931#3" to="585341907#0" type="passenger"/>
    <trip id="288" depart="514.06" from="-224260190#2" to="464445692#1" type="passenger"/>
    <trip id="289" depart="515.85" from="37402371" to="767111811#1" type="passenger"/>
    <trip id="290" depart="517.63" from="331990404#0" to="1206220507#0" type="passenger"/>
    <trip id="291" depart="519.42" from="384030401#1" to="464445691#3" type="passenger"/>
    <trip id="292" depart="521.20" from="1206220504#1" to="376666916#2" type="passenger"/>
    <trip id="293" depart="522.99" from="-376666916#1" to="224260190#3" type="passenger"/>
    <trip id="294" depart="524.77" from="-516163750#0" to="384030401#1" type="passenger"/>
    <trip id="295" depart="526.56" from="384030401#0" to="224260190#0" type="passenger"/>
    <trip id="296" depart="528.34" from="464445692#0" to="-376666930#0" type="passenger"/>
    <trip id="297" depart="530.13" from="-631259843" to="384030401#2" type="passenger"/>
    <trip id="298" depart="531.91" from="-376666932#1" to="1206220503#1" type="passenger"/>
    <trip id="299" depart="533.70" from="224260190#2" to="333554718" type="passenger"/>
    <trip id="300" depart="535.48" from="464445691#0" to="1206220503#1" type="passenger"/>
    <trip id="301" depart="537.27" from="-778973690" to="37402371" type="passenger"/>
    <trip id="302" depart="539.05" from="516163750#0" to="219696191#0" type="passenger"/>
    <trip id="303" depart="540.84" from="585352852#1" to="767111811#1" type="passenger"/>
    <trip id="304" depart="542.62" from="-376666930#1" to="1206220503#1" type="passenger"/>
    <trip id="305" depart="544.41" from="-376666916#2" to="376666916#2" type="passenger"/>
    <trip id="306" depart="546.19" from="1206220507#0" to="-224260190#0" type="passenger"/>
    <trip id="307" depart="547.98" from="218962181" to="1206223946#1" type="passenger"/>
    <trip id="308" depart="549.76" from="516163750#1" to="-778973690" type="passenger"/>
    <trip id="309" depart="551.55" from="-384030401#0" to="333554718" type="passenger"/>
    <trip id="310" depart="553.33" from="-516163750#1" to="376666931#4" type="passenger"/>
    <trip id="311" depart="555.12" from="376666930#2" to="619147740" type="passenger"/>
    <trip id="312" depart="556.90" from="464445692#0" to="-376666931#4" type="passenger"/>
    <trip id="313" depart="558.69" from="376666930#2" to="-384030401#0" type="passenger"/>
    <trip id="314" depart="560.47" from="376666930#0" to="-376666916#0" type="passenger"/>
    <trip id="315" depart="562.26" from="585352852#1" to="-376666916#0" type="passenger"/>
    <trip id="316" depart="564.04" from="376666930#1" to="-376666930#0" type="passenger"/>
    <trip id="317" depart="565.83" from="218962181" to="585341906#0" type="passenger"/>
    <trip id="318" depart="567.61" from="-384030401#1" to="516163750#0" type="passenger"/>
    <trip id="319" depart="569.40" from="376666930#0" to="-376666931#0" type="passenger"/>
    <trip id="320" depart="571.18" from="464445692#0" to="224260190#2" type="passenger"/>
    <trip id="321" depart="572.97" from="585352852#0-AddedOffRampEdge" to="219696191#1" type="passenger"/>