<?xml version="1.0" encoding="UTF-8"?>

<!-- generated on 2026-04-16 00:51:12.400371 by Eclipse SUMO randomTrips.py v1.26.0
<configuration>
    <net-file value="/Users/junlee/Desktop/2026-1/js/result/report_commute_peak_tradeoff_top8_seed3_30min/sumo_nets/cw_6122/network.net.xml"/>
    <output-trip-file value="/Users/junlee/Desktop/2026-1/js/result/report_commute_peak_tradeoff_top8_seed3_30min/sumo_nets/cw_6122/routes_seed43.trips.xml"/>
    <route-file value="/Users/junlee/Desktop/2026-1/js/result/report_commute_peak_tradeoff_top8_seed3_30min/sumo_nets/cw_6122/routes_seed43.rou.xml"/>
    <vehicle-class value="passenger"/>
    <seed value="43"/>
    <end value="1800.0"/>
    <period value="2.6758279298160597"/>
</configuration>
-->

<routes xmlns:xsi="http://www.w3.org/2001/XMLSchema-instance" xsi:noNamespaceSchemaLocation="http://sumo.dlr.de/xsd/routes_file.xsd">
    <vType id="passenger" vClass="passenger"/>
    <trip id="0" depart="0.00" from="-301285279#0" to="333557072#1" type="passenger"/>
    <trip id="1" depart="2.68" from="-315658897#0" to="315658884#1" type="passenger"/>
    <trip id="2" depart="5.35" from="243542153#1" to="315658896#2" type="passenger"/>
    <trip id="3" depart="8.03" from="-243542153#2" to="301285279#0" type="passenger"/>
    <trip id="4" depart="10.70" from="315658896#3" to="382947009" type="passenger"/>
    <trip id="5" depart="13.38" from="218915135#1-AddedOffRampEdge" to="-315658897#5" type="passenger"/>
    <trip id="6" depart="16.05" from="315658884#2" to="315658896#2" type="passenger"/>
    <trip id="7" depart="18.73" from="464459667" to="315658897#5" type="passenger"/>
    <trip id="8" depart="21.41" from="315658884#1" to="315658897#3" type="passenger"/>
    <trip id="9" depart="24.08" from="-788296725" to="-301285279#2" type="passenger"/>
    <trip id="10" depart="26.76" from="-315658896#3" to="777881147#3" type="passenger"/>
    <trip id="11" depart="29.43" from="315658897#1" to="788296725" type="passenger"/>
    <trip id="12" depart="32.11" from="315658900#2" to="-315658896#3" type="passenger"/>
    <trip id="13" depart="34.79" from="315658896#1" to="333557072#1" type="passenger"/>
    <trip id="14" depart="37.46" from="-315658897#2" to="777881147#3" type="passenger"/>
    <trip id="15" depart="40.14" from="-315658897#4" to="315658899#0" type="passenger"/>
    <trip id="16" depart="42.81" from="913406478" to="315658897#1" type="passenger"/>
    <trip id="17" depart="45.49" from="-315658896#4" to="315658896#2" type="passenger"/>
    <trip id="18" depart="48.16" from="619147739#0" to="913406478" type="passenger"/>
    <trip id="19" depart="50.84" from="913406478" to="315658897#5" type="passenger"/>
    <trip id="20" depart="53.52" from="-315658896#1" to="-315658897#0" type="passenger"/>
    <trip id="21" depart="56.19" from="-315658897#1" to="619147739#3" type="passenger"/>
    <trip id="22" depart="58.87" from="-315658896#3" to="315658896#6" type="passenger"/>
    <trip id="23" depart="61.54" from="955312947#0" to="-315658897#0" type="passenger"/>
    <trip id="24" depart="64.22" from="333972428#0" to="955312947#1" type="passenger"/>
    <trip id="25" depart="66.90" from="78628770#1" to="781983104#0" type="passenger"/>
    <trip id="26" depart="69.57" from="-464459667" to="333972428#1" type="passenger"/>
    <trip id="27" depart="72.25" from="301285279#2" to="788296725" type="passenger"/>
    <trip id="28" depart="74.92" from="318747848#2" to="777881147#1" type="passenger"/>
    <trip id="29" depart="77.60" from="318747848#3" to="-315658896#3" type="passenger"/>
    <trip id="30" depart="80.27" from="-315658899#0" to="788296725" type="passenger"/>
    <trip id="31" depart="82.95" from="-955312948" to="318747848#3" type="passenger"/>
    <trip id="32" depart="85.63" from="315658897#0" to="-318747848#3" type="passenger"/>
    <trip id="33" depart="88.30" from="-315658897#4" to="-315658897#5" type="passenger"/>
    <trip id="34" depart="90.98" from="-315658897#4" to="-315658900#1" type="passenger"/>
    <trip id="35" depart="93.65" from="-955312947#0" to="955312947#1" type="passenger"/>
    <trip id="36" depart="96.33" from="-315658900#0" to="301285279#2" type="passenger"/>
    <trip id="37" depart="99.01" from="-301285279#2" to="-301285279#0" type="passenger"/>
    <trip id="38" depart="101.68" from="315658896#3" to="315658899#1" type="passenger"/>
    <trip id="39" depart="104.36" from="781983103#1" to="913406478" type="passenger"/>
    <trip id="40" depart="107.03" from="315658897#0" to="-318747848#3" type="passenger"/>
    <trip id="41" depart="109.71" from="-315658896#5" to="382947009" type="passenger"/>
    <trip id="42" depart="112.38" from="-315658897#1" to="-243542153#1" type="passenger"/>
    <trip id="43" depart="115.06" from="318747848#2" to="-315658897#0" type="passenger"/>
    <trip id="44" depart="117.74" from="315658897#4" to="-315658899#1" type="passenger"/>
    <trip id="45" depart="120.41" from="218915135#1" to="-243542153#2" type="passenger"/>
    <trip id="46" depart="123.09" from="-788296725" to="-788296725" type="passenger"/>
    <trip id="47" depart="125.76" from="-315658900#3" to="-315658897#1" type="passenger"/>
    <trip id="48" depart="128.44" from="315658897#0" to="318747848#3" type="passenger"/>
    <trip id="49" depart="131.12" from="-315658884#2" to="333557072#1" type="passenger"/>
    <trip id="50" depart="133.79" from="-315658896#6" to="-315658900#1" type="passenger"/>
    <trip id="51" depart="136.47" from="333972428#0" to="315658884#2" type="passenger"/>
    <trip id="52" depart="139.14" from="301285279#1" to="301285279#1" type="passenger"/>
    <trip id="53" depart="141.82" from="78628775#0" to="379943755#1" type="passenger"/>
    <trip id="54" depart="144.49" from="315658896#3" to="777881147#1" type="passenger"/>
    <trip id="55" depart="147.17" from="315658897#3" to="333972428#1" type="passenger"/>
    <trip id="56" depart="149.85" from="315658884#2" to="315658897#3" type="passenger"/>
    <trip id="57" depart="152.52" from="-315658899#0" to="788296725" type="passenger"/>
    <trip id="58" depart="155.20" from="315658899#0" to="777881144#1" type="passenger"/>
    <trip id="59" depart="157.87" from="-315658896#3" to="781983104#0" type="passenger"/>
    <trip id="60" depart="160.55" from="955312947#1" to="315658899#0" type="passenger"/>
    <trip id="61" depart="163.23" from="333972428#0" to="315658896#4" type="passenger"/>
    <trip id="62" depart="165.90" from="-315658900#3" to="315658896#1" type="passenger"/>
    <trip id="63" depart="168.58" from="-464459667" to="301285279#1" type="passenger"/>
    <trip id="64" depart="171.25" from="619147739#2" to="-955312948" type="passenger"/>
    <trip id="65" depart="173.93" from="-788296724#0" to="581906883" type="passenger"/>
    <trip id="66" depart="176.60" from="318747848#2" to="301285279#1" type="passenger"/>
    <trip id="67" depart="179.28" from="-333972428#2" to="619147739#2" type="passenger"/>
    <trip id="68" depart="181.96" from="-315658900#1" to="315658884#1" type="passenger"/>
    <trip id="69" depart="184.63" from="-315658900#1" to="315658897#5" type="passenger"/>
    <trip id="70" depart="187.31" from="-315658897#3" to="781983104#0" type="passenger"/>
    <trip id="71" depart="189.98" from="619147739#1" to="-315658900#0" type="passenger"/>
    <trip id="72" depart="192.66" from="-315658897#3" to="788296725" type="passenger"/>
    <trip id="73" depart="195.34" from="315658897#1" to="333972428#1" type="passenger"/>
    <trip id="74" depart="198.01" from="78628770#1" to="-318747848#3" type="passenger"/>
    <trip id="75" depart="200.69" from="-315658897#4" to="-318747848#2" type="passenger"/>
    <trip id="76" depart="203.36" from="781983104#0" to="777881147#1" type="passenger"/>
    <trip id="77" depart="206.04" from="315658884#2" to="-315658897#1" type="passenger"/>
    <trip id="78" depart="208.71" from="382947009" to="-318747848#2" type="passenger"/>
    <trip id="79" depart="211.39" from="-315658897#1" to="318747848#3" type="passenger"/>
    <trip id="80" depart="214.07" from="218915135#2" to="301285279#2" type="passenger"/>
    <trip id="81" depart="216.74" from="301285279#0" to="315658900#2" type="passenger"/>
    <trip id="82" depart="219.42" from="-315658896#3" to="318747848#2" type="passenger"/>
    <trip id="83" depart="222.09" from="301285279#1" to="777881144#1" type="passenger"/>
    <trip id="84" depart="224.77" from="-315658899#0" to="333557072#1" type="passenger"/>
    <trip id="85" depart="227.45" from="315658900#2" to="315658897#0" type="passenger"/>
    <trip id="86" depart="230.12" from="301285279#0" to="913406478" type="passenger"/>
    <trip id="87" depart="232.80" from="-788296724#0" to="-315658896#2" type="passenger"/>
    <trip id="88" depart="235.47" from="-315658897#4" to="315658900#0" type="passenger"/>
    <trip id="89" depart="238.15" from="-315658899#0" to="777881147#3" type="passenger"/>
    <trip id="90" depart="240.82" from="218915135#0" to="-315658884#1" type="passenger"/>
    <trip id="91" depart="243.50" from="315658899#0" to="-315658896#2" type="passenger"/>
    <trip id="92" depart="246.18" from="315658897#4" to="-318747848#1" type="passenger"/>
    <trip id="93" depart="248.85" from="-315658884#2" to="781983103#2" type="passenger"/>
    <trip id="94" depart="251.53" from="315658900#1" to="619147739#3" type="passenger"/>
    <trip id="95" depart="254.20" from="315658900#0" to="-315658900#2" type="passenger"/>
    <trip id="96" depart="256.88" from="-318747848#2" to="315658899#0" type="passenger"/>
    <trip id="97" depart="259.56" from="619147739#1" to="315658900#0" type="passenger"/>
    <trip id="98" depart="262.23" from="-333972428#3" to="619147739#2" type="passenger"/>
    <trip id="99" depart="264.91" from="218915135#0" to="315658900#0" type="passenger"/>
    <trip id="100" depart="267.58" from="243542153#2" to="315658897#4" type="passenger"/>
    <trip id="101" depart="270.26" from="-315658897#5" to="301285279#0" type="passenger"/>
    <trip id="102" depart="272.93" from="-243542153#2" to="619147739#3" type="passenger"/>
    <trip id="103" depart="275.61" from="315658897#0" to="464459667" type="passenger"/>
    <trip id="104" depart="278.29" from="-315658896#4" to="301285279#1" type="passenger"/>
    <trip id="105" depart="280.96" from="243542153#2" to="-315658897#0" type="passenger"/>
    <trip id="106" depart="283.64" from="315658897#5" to="-318747848#2" type="passenger"/>
    <trip id="107" depart="286.31" from="318747848#1" to="315658896#3" type="passenger"/>
    <trip id="108" depart="288.99" from="315658896#1" to="-315658900#2" type="passenger"/>
    <trip id="109" depart="291.67" from="382947009" to="-243542153#2" type="passenger"/>
    <trip id="110" depart="294.34" from="-333972428#2" to="-315658896#4" type="passenger"/>
    <trip id="111" depart="297.02" from="-315658896#1" to="-243542153#2" type="passenger"/>
    <trip id="112" depart="299.69" from="315658896#1" to="-315658896#1" type="passenger"/>
    <trip id="113" depart="302.37" from="-315658896#4" to="301285279#0" type="passenger"/>
    <trip id="114" depart="305.04" from="315658900#2" to="-315658899#1" type="passenger"/>
    <trip id="115" depart="307.72" from="315658900#0" to="315658897#1" type="passenger"/>
    <trip id="116" depart="310.40" from="78628775#2" to="619147739#3" type="passenger"/>
    <trip id="117" depart="313.07" from="955312948" to="-955312948" type="passenger"/>
    <trip id="118" depart="315.75" from="-318747848#2" to="243542153#3" type="passenger"/>
    <trip id="119" depart="318.42" from="-243542153#3" to="333972428#1" type="passenger"/>
    <trip id="120" depart="321.10" from="-315658896#1" to="315658899#1" type="passenger"/>
    <trip id="121" depart="323.78" from="-333972428#1" to="-955312947#1" type="passenger"/>
    <trip id="122" depart="326.45" from="-333972428#2" to="-315658897#0" type="passenger"/>
    <trip id="123" depart="329.13" from="-315658899#1" to="-315658897#0" type="passenger"/>
    <trip id="124" depart="331.80" from="-318747848#2" to="-315658896#4" type="passenger"/>
    <trip id="125" depart="334.48" from="-788296724#0" to="921117704" type="passenger"/>
    <trip id="126" depart="337.15" from="218915135#1-AddedOffRampEdge" to="-315658897#5" type="passenger"/>
    <trip id="127" depart="339.83" from="315658900#1" to="333972428#1" type="passenger"/>
    <trip id="128" depart="342.51" from="-315658900#3" to="315658900#0" type="passenger"/>
    <trip id="129" depart="345.18" from="-315658896#2" to="-464459667" type="passenger"/>
    <trip id="130" depart="347.86" from="-318747848#3" to="619147739#2" type="passenger"/>
    <trip id="131" depart="350.53" from="315658897#4" to="315658896#4" type="passenger"/>
    <trip id="132" depart="353.21" from="218915135#1-AddedOffRampEdge" to="315658897#1" type="passenger"/>
    <trip id="133" depart="355.89" from="301285279#1" to="-318747848#3" type="passenger"/>
    <trip id="134" depart="358.56" from="-955312947#0" to="243542153#1" type="passenger"/>
    <trip id="135" depart="361.24" from="464459667" to="-315658897#4" type="passenger"/>
    <trip id="136" depart="363.91" from="-315658897#4" to="-955312947#1" type="passenger"/>
    <trip id="137" depart="366.59" from="315658884#2" to="315658896#4" type="passenger"/>
    <trip id="138" depart="369.26" from="78628775#2" to="315658897#3" type="passenger"/>
    <trip id="139" depart="371.94" from="955312947#1" to="781983103#2" type="passenger"/>
    <trip id="140" depart="374.62" from="-301285279#2" to="333557072#2" type="passenger"/>
    <trip id="141" depart="377.29" from="-315658896#5" to="955312948" type="passenger"/>
    <trip id="142" depart="379.97" from="243542153#1" to="379943755#1" type="passenger"/>
    <trip id="143" depart="382.64" from="-315658900#3" to="315658900#3" type="passenger"/>
    <trip id="144" depart="385.32" from="-243542153#3" to="619147739#2" type="passenger"/>
    <trip id="145" depart="388.00" from="218915135#2" to="315658896#3" type="passenger"/>
    <trip id="146" depart="390.67" from="-955312947#0" to="315658897#0" type="passenger"/>
    <trip id="147" depart="393.35" from="318747848#2" to="-315658897#1" type="passenger"/>
    <trip id="148" depart="396.02" from="777881144#0" to="-955312948" type="passenger"/>
    <trip id="149" depart="398.70" from="218915135#2" to="-955312948" type="passenger"/>
    <trip id="150" depart="401.37" from="-315658884#2" to="788296724#0" type="passenger"/>
    <trip id="151" depart="404.05" from="315658897#1" to="382947009" type="passenger"/>
    <trip id="152" depart="406.73" from="-315658897#1" to="315658896#1" type="passenger"/>
    <trip id="153" depart="409.40" from="-318747848#2" to="-333972428#0" type="passenger"/>
    <trip id="154" depart="412.08" from="-955312947#1" to="315658900#0" type="passenger"/>
    <trip id="155" depart="414.75" from="243542153#1" to="333557072#1" type="passenger"/>
    <trip id="156" depart="417.43" from="955312947#1" to="315658897#4" type="passenger"/>
    <trip id="157" depart="420.10" from="619147739#2" to="913406478" type="passenger"/>
    <trip id="158" depart="422.78" from="955312947#0" to="-955312947#1" type="passenger"/>
    <trip id="159" depart="425.46" from="-243542153#2" to="777881144#1" type="passenger"/>
    <trip id="160" depart="428.13" from="781983104#1" to="781983104#1" type="passenger"/>
    <trip id="161" depart="430.81" from="-464459667" to="333972428#2" type="passenger"/>
    <trip id="162" depart="433.48" from="78628775#2" to="315658896#5" type="passenger"/>
    <trip id="163" depart="436.16" from="-315658900#1" to="243542153#3" type="passenger"/>
    <trip id="164" depart="438.84" from="-333972428#3" to="315658896#1" type="passenger"/>
    <trip id="165" depart="441.51" from="-315658896#4" to="315658896#1" type="passenger"/>
    <trip id="166" depart="444.19" from="-243542153#3" to="955312948" type="passenger"/>
    <trip id="167" depart="446.86" from="-315658899#0" to="-243542153#1" type="passenger"/>
    <trip id="168" depart="449.54" from="-315658896#5" to="-315658884#1" type="passenger"/>
    <trip id="169" depart="452.21" from="318747848#2" to="382947009" type="passenger"/>
    <trip id="170" depart="454.89" from="218915135#1" to="-955312947#1" type="passenger"/>
    <trip id="171" depart="457.57" from="955312947#1" to="-318747848#2" type="passenger"/>
    <trip id="172" depart="460.24" from="619147739#2" to="619147739#3" type="passenger"/>
    <trip id="173" depart="462.92" from="243542153#1" to="581906883" type="passenger"/>
    <trip id="174" depart="465.59" from="781983103#1" to="-955312947#1" type="passenger"/>
    <trip id="175" depart="468.27" from="218915135#1-AddedOffRampEdge" to="-464459667" type="passenger"/>
    <trip id="176" depart="470.95" from="619147739#3" to="-955312947#1" type="passenger"/>
    <trip id="177" depart="473.62" from="218915135#0" to="315658897#2" type="passenger"/>
    <trip id="178" depart="476.30" from="-315658896#1" to="777881147#1" type="passenger"/>
    <trip id="179" depart="478.97" from="218915135#1-AddedOffRampEdge" to="619147739#2" type="passenger"/>
    <trip id="180" depart="481.65" from="619147739#2" to="333972428#3" type="passenger"/>
    <trip id="181" depart="484.32" from="333972428#0" to="315658896#4" type="passenger"/>
    <trip id="182" depart="487.00" from="-315658896#1" to="-955312947#1" type="passenger"/>
    <trip id="183" depart="489.68" from="-315658900#1" to="-243542153#2" type="passenger"/>
    <trip id="184" depart="492.35" from="-333972428#3" to="-788296724#0" type="passenger"/>
    <trip id="185" depart="495.03" from="301285279#0" to="-315658897#5" type="passenger"/>
    <trip id="186" depart="497.70" from="315658896#3" to="-315658896#5" type="passenger"/>
    <trip id="187" depart="500.38" from="619147739#1" to="777881145" type="passenger"/>
    <trip id="188" depart="503.06" from="218915135#0" to="781983104#0" type="passenger"/>
    <trip id="189" depart="505.73" from="315658900#1" to="315658897#1" type="passenger"/>
    <trip id="190" depart="508.41" from="315658899#0" to="301285279#1" type="passenger"/>
    <trip id="191" depart="511.08" from="-315658900#0" to="781983103#2" type="passenger"/>
    <trip id="192" depart="513.76" from="-955312947#0" to="315658897#0" type="passenger"/>
    <trip id="193" depart="516.43" from="315658897#4" to="-955312948" type="passenger"/>
    <trip id="194" depart="519.11" from="955312948" to="777881147#3" type="passenger"/>
    <trip id="195" depart="521.79" from="-955312947#0" to="-955312947#0" type="passenger"/>
    <trip id="196" depart="524.46" from="-788296724#0" to="-315658897#0" type="passenger"/>
    <trip id="197" depart="527.14" from="315658896#2" to="315658884#1" type="passenger"/>
    <trip id="198" depart="529.81" from="218915135#2" to="315658899#0" type="passenger"/>
    <trip id="199" depart="532.49" from="-243542153#2" to="315658897#2" type="passenger"/>
    <trip id="200" depart="535.17" from="315658900#2" to="315658897#1" type="passenger"/>
    <trip id="201" depart="537.84" from="-243542153#1" to="315658897#2" type="passenger"/>
    <trip id="202" depart="540.52" from="78628775#0" to="318747848#3" type="passenger"/>
    <trip id="203" depart="543.19" from="-315658899#1" to="301285279#2" type="passenger"/>
    <trip id="204" depart="545.87" from="315658897#4" to="315658896#5" type="passenger"/>
    <trip id="205" depart="548.54" from="-315658896#1" to="-318747848#1" type="passenger"/>
    <trip id="206" depart="551.22" from="-315658900#3" to="-315658896#2" type="passenger"/>
    <trip id="207" depart="553.90" from="-315658896#2" to="777881145" type="passenger"/>
    <trip id="208" depart="556.57" from="301285279#1" to="315658896#4" type="passenger"/>
    <trip id="209" depart="559.25" from="-315658884#2" to="-315658897#0" type="passenger"/>
    <trip id="210" depart="561.92" from="619147739#3" to="333557072#1" type="passenger"/>
    <trip id="211" depart="564.60" from="913406478" to="318747848#3" type="passenger"/>
    <trip id="212" depart="567.28" from="-315658900#0" to="315658897#4" type="passenger"/>
    <trip id="213" depart="569.95" from="315658897#3" to="955312947#0" type="passenger"/>
    <trip id="214" depart="572.63" from="-315658897#5" to="-318747848#3" type="passenger"/>
    <trip id="215" depart="575.30" from="619147739#3" to="955312948" type="passenger"/>
    <trip id="216" depart="577.98" from="-788296725" to="333557072#2" type="passenger"/>
    <trip id="217" depart="580.65" from="218915135#0" to="781983103#1" type="passenger"/>
    <trip id="218" depart="583.33" from="788296725" to="-318747848#3" type="passenger"/>
    <trip id="219" depart="586.01" from="-315658896#4" to="315658899#0" type="passenger"/>
    <trip id="220" depart="588.68" from="-315658884#1" to="243542153#2" type="passenger"/>
    <trip id="221" depart="591.36" from="-315658897#5" to="777881144#1" type="passenger"/>
    <trip id="222" depart="594.03" from="-955312948" to="777881145" type="passenger"/>
    <trip id="223" depart="596.71" from="315658897#2" to="379943755#1" type="passenger"/>
    <trip id="224" depart="599.39" from="315658900#1" to="581906883" type="passenger"/>
    <trip id="225" depart="602.06" from="-955312947#1" to="-315658897#5" type="passenger"/>
    <trip id="226" depart="604.74" from="-315658900#0" to="619147739#3" type="passenger"/>
    <trip id="227" depart="607.41" from="-315658896#4" to="382947009" type="passenger"/>
    <trip id="228" depart="610.09" from="333972428#0" to="333972428#2" type="passenger"/>
    <trip id="229" depart="612.76" from="318747848#1" to="333972428#3" type="passenger"/>
    <trip id="230" depart="615.44" from="-315658900#0" to="-315658896#5" type="passenger"/>
    <trip id="231" depart="618.12" from="-301285279#2" to="-382947009" type="passenger"/>
    <trip id="232" depart="620.79" from="619147739#0" to="-315658900#2" type="passenger"/>
    <trip id="233" depart="623.47" from="913405361" to="-333972428#0" type="passenger"/>
    <trip id="234" depart="626.14" from="955312947#0" to="581906883" type="passenger"/>
    <trip id="235" depart="628.82" from="-301285279#1" to="-333972428#0" type="passenger"/>
    <trip id="236" depart="631.50" from="315658897#1" to="955312947#0" type="passenger"/>
    <trip id="237" depart="634.17" from="781983103#1" to="-464459667" type="passenger"/>
    <trip id="238" depart="636.85" from="315658897#1" to="315658896#3" type="passenger"/>
    <trip id="239" depart="639.52" from="315658884#1" to="315658896#3" type="passenger"/>
    <trip id="240" depart="642.20" from="-333972428#1" to="-315658897#1" type="passenger"/>
    <trip id="241" depart="644.87" from="-315658899#1" to="-955312947#1" type="passenger"/>
    <trip id="242" depart="647.55" from="301285279#1" to="301285279#0" type="passenger"/>
    <trip id="243" depart="650.23" from="315658897#3" to="333972428#1" type="passenger"/>
    <trip id="244" depart="652.90" from="-243542153#2" to="-315658897#0" type="passenger"/>
    <trip id="245" depart="655.58" from="218915135#1-AddedOffRampEdge" to="315658896#3" type="passenger"/>
    <trip id="246" depart="658.25" from="-955312947#0" to="315658900#1" type="passenger"/>
    <trip id="247" depart="660.93" from="-318747848#3" to="315658896#4" type="passenger"/>
    <trip id="248" depart="663.61" from="-243542153#2" to="333972428#1" type="passenger"/>
    <trip id="249" depart="666.28" from="315658897#0" to="781983104#1" type="passenger"/>
    <trip id="250" depart="668.96" from="-333972428#1" to="955312947#0" type="passenger"/>
    <trip id="251" depart="671.63" from="-464459667" to="315658897#1" type="passenger"/>
    <trip id="252" depart="674.31" from="-315658899#1" to="315658896#3" type="passenger"/>
    <trip id="253" depart="676.98" from="-315658884#2" to="315658897#5" type="passenger"/>
    <trip id="254" depart="679.66" from="-315658897#1" to="-955312947#1" type="passenger"/>
    <trip id="255" depart="682.34" from="-315658897#2" to="921117704" type="passenger"/>
    <trip id="256" depart="685.01" from="318747848#1" to="382947009" type="passenger"/>
    <trip id="257" depart="687.69" from="-243542153#3" to="-243542153#2" type="passenger"/>
    <trip id="258" depart="690.36" from="-315658896#6" to="-955312948" type="passenger"/>
    <trip id="259" depart="693.04" from="315658896#1" to="379943755#1" type="passenger"/>
    <trip id="260" depart="695.72" from="315658897#2" to="333972428#1" type="passenger"/>
    <trip id="261" depart="698.39" from="913405361" to="913405361" type="passenger"/>
    <trip id="262" depart="701.07" from="315658897#5" to="333557072#1" type="passenger"/>
    <trip id="263" depart="703.74" from="315658896#2" to="315658897#2" type="passenger"/>
    <trip id="264" depart="706.42" from="-464459667" to="955312948" type="passenger"/>
    <trip id="265" depart="709.09" from="315658884#2" to="315658897#5" type="passenger"/>
    <trip id="266" depart="711.77" from="-955312947#0" to="-243542153#1" type="passenger"/>
    <trip id="267" depart="714.45" from="315658897#0" to="619147739#2" type="passenger"/>
    <trip id="268" depart="717.12" from="218915135#2" to="-315658897#0" type="passenger"/>
    <trip id="269" depart="719.80" from="781983103#1" to="315658899#1" type="passenger"/>
    <trip id="270" depart="722.47" from="619147739#2" to="777881144#1" type="passenger"/>
    <trip id="271" depart="725.15" from="-243542153#3" to="315658897#0" type="passenger"/>
    <trip id="272" depart="727.83" from="-315658897#3" to="315658896#4" type="passenger"/>
    <trip id="273" depart="730.50" from="-333972428#3" to="-315658896#2" type="passenger"/>
    <trip id="274" depart="733.18" from="619147739#2" to="777881147#1" type="passenger"/>
    <trip id="275" depart="735.85" from="315658896#3" to="781983104#0" type="passenger"/>
    <trip id="276" depart="738.53" from="315658896#2" to="-315658897#3" type="passenger"/>
    <trip id="277" depart="741.20" from="619147739#3" to="315658897#0" type="passenger"/>
    <trip id="278" depart="743.88" from="-955312947#0" to="-315658896#3" type="passenger"/>
    <trip id="279" depart="746.56" from="955312947#0" to="-315658900#2" type="passenger"/>
    <trip id="280" depart="749.23" from="-318747848#2" to="315658900#0" type="passenger"/>
    <trip id="281" depart="751.91" from="318747848#2" to="788296725" type="passenger"/>
    <trip id="282" depart="754.58" from="-333972428#1" to="-315658896#4" type="passenger"/>
    <trip id="283" depart="757.26" from="777881144#0" to="-955312947#1" type="passenger"/>
    <trip id="284" depart="759.94" from="955312947#1" to="777881147#1" type="passenger"/>
    <trip id="285" depart="762.61" from="315658896#4" to="301285279#2" type="passenger"/>
    <trip id="286" depart="765.29" from="-464459667" to="619147739#3" type="passenger"/>
    <trip id="287" depart="767.96" from="382947009" to="955312948" type="passenger"/>
    <trip id="288" depart="770.64" from="318747848#1" to="921117704" type="passenger"/>
    <trip id="289" depart="773.31" from="-243542153#3" to="-315658899#1" type="passenger"/>
    <trip id="290" depart="775.99" from="-315658896#5" to="315658897#3" type="passenger"/>
    <trip id="291" depart="778.67" from="777881144#0" to="-243542153#2" type="passenger"/>
    <trip id="292" depart="781.34" from="-315658896#1" to="-315658900#1" type="passenger"/>
    <trip id="293" depart="784.02" from="-315658884#1" to="333557072#1" type="passenger"/>
    <trip id="294" depart="786.69" from="781983103#2" to="301285279#1" type="passenger"/>
    <trip id="295" depart="789.37" from="301285279#1" to="781983104#0" type="passenger"/>
    <trip id="296" depart="792.05" from="382947009" to="-315658896#1" type="passenger"/>
    <trip id="297" depart="794.72" from="-315658897#5" to="301285279#1" type="passenger"/>
    <trip id="298" depart="797.40" from="-315658884#2" to="-315658896#2" type="passenger"/>
    <trip id="299" depart="800.07" from="-464459667" to="464459667" type="passenger"/>
    <trip id="300" depart="802.75" from="318747848#1" to="301285279#1" type="passenger"/>
    <trip id="301" depart="805.42" from="-315658900#2" to="301285279#2" type="passenger"/>
    <trip id="302" depart="808.10" from="-333972428#2" to="301285279#0" type="passenger"/>
    <trip id="303" depart="810.78" from="-315658900#1" to="315658897#2" type="passenger"/>
    <trip id="304" depart="813.45" from="315658896#2" to="382947009" type="passenger"/>
    <trip id="305" depart="816.13" from="781983104#0" to="777881147#1" type="passenger"/>
    <trip id="306" depart="818.80" from="78628775#2" to="315658896#4" type="passenger"/>
    <trip id="307" depart="821.48" from="-315658896#2" to="619147739#2" type="passenger"/>
    <trip id="308" depart="824.16" from="315658900#1" to="333557072#1" type="passenger"/>
    <trip id="309" depart="826.83" from="619147739#2" to="-318747848#3" type="passenger"/>
    <trip id="310" depart="829.51" from="-243542153#2" to="333972428#2" type="passenger"/>
    <trip id="311" depart="832.18" from="218915135#0" to="-315658897#1" type="passenger"/>
    <trip id="312" depart="834.86" from="619147739#3" to="-318747848#2" type="passenger"/>
    <trip id="313" depart="837.53" from="-955312947#0" to="315658899#1" type="passenger"/>
    <trip id="314" depart="840.21" from="315658896#1" to="315658896#2" type="passenger"/>
    <trip id="315" depart="842.89" from="315658897#4" to="315658896#1" type="passenger"/>
    <trip id="316" depart="845.56" from="-315658884#2" to="315658896#3" type="passenger"/>
    <trip id="317" depart="848.24" from="315658896#2" to="-243542153#2" type="passenger"/>
    <trip id="318" depart="850.91" from="-243542153#1" to="955312947#0" type="passenger"/>
    <trip id="319" depart="853.59" from="-315658896#2" to="301285279#1" type="passenger"/>
    <trip id="320" depart="856.26" from="781983104#0" to="777881144#1" type="passenger"/>
    <trip id="321" depart="858.94" from="301285279#2" to="379943755#1" type="passenger"/>