<?xml version="1.0" encoding="UTF-8"?>

<!-- generated on 2026-04-15T03:10:19.178323+09:00 by Eclipse SUMO netconvert 1.26.0
<netconvertConfiguration xmlns:xsi="http://www.w3.org/2001/XMLSchema-instance" xsi:noNamespaceSchemaLocation="http://sumo.dlr.de/xsd/netconvertConfiguration.xsd">

    <input>
        <osm-files value="/Users/junlee/Desktop/2026-1/js/result/report_top12_seed4_2h/sumo_nets/cw_5831/map.osm"/>
    </input>

    <output>
        <output-file value="/Users/junlee/Desktop/2026-1/js/result/report_top12_seed4_2h/sumo_nets/cw_5831/network.net.xml"/>
    </output>

    <projection>
        <proj.utm value="true"/>
    </projection>

    <processing>
        <geometry.remove value="true"/>
        <roundabouts.guess value="true"/>
    </processing>

    <tls_building>
        <tls.guess value="true"/>
        <tls.guess-signals value="true"/>
    </tls_building>

    <ramp_guessing>
        <ramps.guess value="true"/>
    </ramp_guessing>

    <edge_removal>
        <keep-edges.by-vclass value="passenger,pedestrian"/>
    </edge_removal>

    <junctions>
        <no-turnarounds value="true"/>
        <junctions.join value="true"/>
    </junctions>

    <pedestrian>
        <sidewalks.guess value="true"/>
        <sidewalks.guess.max-speed value="13.89"/>
        <crossings.guess value="true"/>
    </pedestrian>

    <report>
        <verbose value="true"/>
    </report>

</netconvertConfiguration>
-->

<net version="1.20" junctionCornerDetail="5" walkingareas="true" limitTurnSpeed="5.50" xmlns:xsi="http://www.w3.org/2001/XMLSchema-instance" xsi:noNamespaceSchemaLocation="http://sumo.dlr.de/xsd/net_file.xsd">

    <location netOffset="-320291.06,-4158293.85" convBoundary="0.00,0.00,1132.51,2071.28" origBoundary="126.638099,37.384663,127.103615,37.716138" projParameter="+proj=utm +zone=52 +ellps=WGS84 +datum=WGS84 +units=m +no_defs"/>

    <type id="highway.cycleway" priority="1" numLanes="1" speed="5.56" allow="bicycle" oneway="0" width="2.00"/>
    <type id="highway.footway" priority="1" numLanes="1" speed="2.78" allow="pedestrian" oneway="1" width="2.00"/>
    <type id="highway.path" priority="1" numLanes="1" speed="5.56" allow="pedestrian bicycle" oneway="0" width="2.00"/>
    <type id="highway.pedestrian" priority="1" numLanes="1" speed="2.78" allow="pedestrian" oneway="1" width="2.00"/>
    <type id="highway.primary" priority="12" numLanes="2" speed="27.78" disallow="tram rail_urban rail rail_electric rail_fast ship container cable_car subway aircraft wheelchair scooter drone" oneway="0"/>
    <type id="highway.primary_link" priority="7" numLanes="1" speed="22.22" disallow="tram rail_urban rail rail_electric rail_fast ship container cable_car subway aircraft wheelchair scooter drone" oneway="0"/>
    <type id="highway.residential" priority="3" numLanes="1" speed="13.89" disallow="tram rail_urban rail rail_electric rail_fast ship container cable_car subway aircraft wheelchair scooter drone" oneway="0"/>
    <type id="highway.secondary" priority="11" numLanes="1" speed="27.78" disallow="tram rail_urban rail rail_electric rail_fast ship container cable_car subway aircraft wheelchair scooter drone" oneway="0"/>
    <type id="highway.secondary_link" priority="6" numLanes="1" speed="22.22" disallow="tram rail_urban rail rail_electric rail_fast ship container cable_car subway aircraft wheelchair scooter drone" oneway="0"/>
    <type id="highway.service" priority="1" numLanes="1" speed="5.56" allow="pedestrian delivery bicycle" oneway="0"/>
    <type id="highway.steps" priority="1" numLanes="1" speed="1.39" allow="pedestrian" oneway="1" width="2.00"/>
    <type id="highway.tertiary" priority="10" numLanes="1" speed="22.22" disallow="tram rail_urban rail rail_electric rail_fast ship container cable_car subway aircraft wheelchair scooter drone" oneway="0"/>
    <type id="highway.tertiary_link" priority="5" numLanes="1" speed="22.22" disallow="tram rail_urban rail rail_electric rail_fast ship container cable_car subway aircraft wheelchair scooter drone" oneway="0"/>

    <edge id=":11139302899_0" function="internal">
        <lane id=":11139302899_0_0" index="0" disallow="tram rail_urban rail rail_electric rail_fast ship container cable_car subway aircraft wheelchair scooter drone" speed="27.78" length="0.26" shape="614.39,310.94 614.64,310.76"/>
        <lane id=":11139302899_0_1" index="1" disallow="tram rail_urban rail rail_electric rail_fast ship container cable_car subway aircraft wheelchair scooter drone" speed="27.78" length="0.26" shape="616.30,313.50 616.48,313.37"/>
    </edge>
    <edge id=":11139302899_w0" function="walkingarea">
        <lane id=":11139302899_w0_0" index="0" allow="pedestrian" speed="2.78" length="0.31" width="3.20" shape="617.40,314.68 613.71,309.45 613.43,309.66 617.26,314.78"/>
    </edge>
    <edge id=":11139302904_0" function="internal">
        <lane id=":11139302904_0_0" index="0" disallow="tram rail_urban rail rail_electric rail_fast ship container cable_car subway aircraft wheelchair scooter drone" speed="27.78" length="0.28" shape="683.95,270.91 683.70,271.10"/>
        <lane id=":11139302904_0_1" index="1" disallow="tram rail_urban rail rail_electric rail_fast ship container cable_car subway aircraft wheelchair scooter drone" speed="27.78" length="0.28" shape="681.94,268.42 681.74,268.57"/>
    </edge>
    <edge id=":11139302904_w0" function="walkingarea">
        <lane id=":11139302904_w0_0" index="0" allow="pedestrian" speed="2.78" length="0.31" width="3.20" shape="684.95,272.15 680.93,267.17 680.75,267.31 684.68,272.36"/>
    </edge>
    <edge id=":11177413143_0" function="internal">
        <lane id=":11177413143_0_0" index="0" allow="pedestrian delivery bicycle" speed="16.67" length="9.94" shape="584.12,319.88 585.56,317.36 586.13,315.44 586.40,313.39 586.91,310.47"/>
    </edge>
    <edge id=":11177413143_1" function="internal">
        <lane id=":11177413143_1_0" index="0" disallow="tram rail_urban rail rail_electric rail_fast ship container cable_car subway aircraft wheelchair scooter drone" speed="27.78" length="9.86" shape="584.12,319.88 590.32,312.07"/>
        <lane id=":11177413143_1_1" index="1" disallow="tram rail_urban rail rail_electric rail_fast ship container cable_car subway aircraft wheelchair scooter drone" speed="27.78" length="9.86" shape="586.79,321.66 592.86,314.02"/>
    </edge>
    <edge id=":11177413143_w0" function="walkingarea">
        <lane id=":11177413143_w0_0" index="0" allow="pedestrian" speed="2.78" length="7.85" width="3.20" shape="594.13,314.99 589.05,311.10 588.47,310.82 585.35,310.12 584.80,313.57 584.65,314.80 584.37,315.99 583.80,317.31 582.79,318.99 588.12,322.55"/>
    </edge>
    <edge id=":11177413151_w0" function="walkingarea">
        <lane id=":11177413151_w0_0" index="0" allow="pedestrian" speed="2.78" length="0.10" width="3.20" shape="618.16,-0.83 630.86,0.83"/>
    </edge>
    <edge id=":11177413163_0" function="internal">
        <lane id=":11177413163_0_0" index="0" disallow="tram rail_urban rail rail_electric rail_fast ship container cable_car subway aircraft wheelchair scooter drone" speed="27.78" length="9.45" shape="624.38,308.28 623.35,305.60 622.78,303.73 622.32,301.81 621.64,299.02"/>
        <lane id=":11177413163_0_1" index="1" disallow="tram rail_urban rail rail_electric rail_fast ship container cable_car subway aircraft wheelchair scooter drone" speed="27.78" length="9.45" shape="627.34,307.06 626.36,304.51 625.82,302.72 625.39,300.89 624.74,298.23"/>
    </edge>
    <edge id=":11177413163_2" function="internal">
        <lane id=":11177413163_2_0" index="0" disallow="tram rail_urban rail rail_electric rail_fast ship container cable_car subway aircraft wheelchair scooter drone" speed="4.83" length="3.99" shape="627.34,307.06 627.36,306.53 627.80,305.90 628.67,305.16 629.96,304.31"/>
    </edge>
    <edge id=":11177413163_3" function="internal">
        <lane id=":11177413163_3_0" index="0" disallow="tram rail_urban rail rail_electric rail_fast ship container cable_car subway aircraft wheelchair scooter drone" speed="27.78" length="12.25" shape="618.49,308.04 629.34,300.96"/>
        <lane id=":11177413163_3_1" index="1" disallow="tram rail_urban rail rail_electric rail_fast ship container cable_car subway aircraft wheelchair scooter drone" speed="27.78" length="12.25" shape="620.33,310.66 629.96,304.31"/>
    </edge>
    <edge id=":11177413163_w0" function="walkingarea">
        <lane id=":11177413163_w0_0" index="0" allow="pedestrian" speed="2.78" length="9.14" width="3.20" shape="624.56,312.93 630.48,310.51 630.04,308.19 630.26,307.16 630.76,306.22 631.55,305.36 632.63,304.58 629.35,299.09 627.96,299.57 627.40,299.48 626.94,299.16 626.57,298.60 626.29,297.83 620.09,299.42 620.35,302.31 620.06,303.59 619.50,304.75 618.67,305.80 617.56,306.73 621.25,311.96 622.62,311.36 623.21,311.41 623.72,311.68 624.17,312.19"/>
    </edge>
    <edge id=":11178710194_0" function="internal">
        <lane id=":11178710194_0_0" index="0" disallow="tram rail_urban rail rail_electric rail_fast ship container cable_car subway aircraft wheelchair scooter drone" speed="27.78" length="0.29" shape="615.47,68.00 615.47,67.65"/>
        <lane id=":11178710194_0_1" index="1" disallow="tram rail_urban rail rail_electric rail_fast ship container cable_car subway aircraft wheelchair scooter drone" speed="27.78" length="0.29" shape="618.67,67.95 618.67,67.63"/>
        <lane id=":11178710194_0_2" index="2" disallow="tram rail_urban rail rail_electric rail_fast ship container cable_car subway aircraft wheelchair scooter drone" speed="27.78" length="0.29" shape="621.87,67.89 621.87,67.61"/>
        <lane id=":11178710194_0_3" index="3" disallow="tram rail_urban rail rail_electric rail_fast ship container cable_car subway aircraft wheelchair scooter drone" speed="27.78" length="0.29" shape="625.07,67.83 625.07,67.59"/>
    </edge>
    <edge id=":11178710194_w0" function="walkingarea">
        <lane id=":11178710194_w0_0" index="0" allow="pedestrian" speed="2.78" length="0.35" width="3.20" shape="613.87,68.03 626.67,67.80 626.67,67.58 613.87,67.66"/>
    </edge>
    <edge id=":11178710208_0" function="internal">
        <lane id=":11178710208_0_0" index="0" disallow="tram rail_urban rail rail_electric rail_fast ship container cable_car subway aircraft wheelchair scooter drone" speed="27.78" length="0.22" shape="627.48,327.44 627.56,327.63"/>
        <lane id=":11178710208_0_1" index="1" disallow="tram rail_urban rail rail_electric rail_fast ship container cable_car subway aircraft wheelchair scooter drone" speed="27.78" length="0.22" shape="630.40,326.14 630.49,326.33"/>
        <lane id=":11178710208_0_2" index="2" disallow="tram rail_urban rail rail_electric rail_fast ship container cable_car subway aircraft wheelchair scooter drone" speed="27.78" length="0.22" shape="633.32,324.83 633.41,325.03"/>
        <lane id=":11178710208_0_3" index="3" disallow="tram rail_urban rail rail_electric rail_fast ship container cable_car subway aircraft wheelchair scooter drone" speed="27.78" length="0.22" shape="636.24,323.52 636.33,323.73"/>
        <lane id=":11178710208_0_4" index="4" disallow="tram rail_urban rail rail_electric rail_fast ship container cable_car subway aircraft wheelchair scooter drone" speed="27.78" length="0.22" shape="639.16,322.21 639.26,322.42"/>
    </edge>
    <edge id=":11178710208_w0" function="walkingarea">
        <lane id=":11178710208_w0_0" index="0" allow="pedestrian" speed="2.78" length="0.21" width="3.20" shape="626.02,328.10 640.62,321.56 640.51,321.30 625.89,327.81"/>
    </edge>
    <edge id=":11203001812_w0" function="walkingarea">
        <lane id=":11203001812_w0_0" index="0" allow="pedestrian" speed="2.78" length="3.03" width="4.00" shape="915.58,652.11 915.57,650.11 913.82,650.13 912.64,650.18 911.50,650.30 910.56,650.52 910.00,650.84 913.16,653.30 913.84,652.64 914.23,652.41 914.65,652.24 915.10,652.14"/>
    </edge>
    <edge id=":11270531112_w0" function="walkingarea">
        <lane id=":11270531112_w0_0" index="0" allow="pedestrian" speed="2.78" length="1.32" width="2.00" shape="592.31,396.56 590.44,395.85 589.96,397.79 590.98,397.84 591.41,397.69 591.77,397.43 592.07,397.06"/>
    </edge>
    <edge id=":11418728528_w0" function="walkingarea">
        <lane id=":11418728528_w0_0" index="0" allow="pedestrian" speed="2.78" length="1.97" width="4.00" shape="826.46,687.96 829.62,685.51 824.94,684.35 824.16,686.19"/>
    </edge>
    <edge id=":11418728531_w0" function="walkingarea">
        <lane id=":11418728531_w0_0" index="0" allow="pedestrian" speed="2.78" length="1.82" width="4.00" shape="834.94,696.68 836.90,696.27 836.16,695.18 835.60,695.01 834.98,694.87 834.33,694.59 833.71,694.03 834.36,694.91 834.55,695.25 834.69,695.61 834.81,696.07"/>
    </edge>
    <edge id=":13639573211_0" function="internal">
        <lane id=":13639573211_0_0" index="0" allow="pedestrian bicycle" speed="5.56" length="5.06" width="2.00" shape="827.66,545.77 823.37,548.47"/>
    </edge>
    <edge id=":13639573211_1" function="internal">
        <lane id=":13639573211_1_0" index="0" allow="pedestrian bicycle" speed="5.56" length="5.07" width="2.00" shape="822.30,546.78 826.59,544.07"/>
    </edge>
    <edge id=":13639573211_w0" function="walkingarea">
        <lane id=":13639573211_w0_0" index="0" allow="pedestrian" speed="2.78" length="4.32" width="4.00" shape="825.64,549.94 827.54,549.32 827.34,548.17 827.39,547.69 827.55,547.27 827.82,546.91 828.19,546.61 826.06,543.23 821.77,545.93 823.91,549.32 824.66,549.03 824.97,549.07 825.24,549.24 825.46,549.53"/>
    </edge>
    <edge id=":13639573216_0" function="internal">
        <lane id=":13639573216_0_0" index="0" allow="pedestrian bicycle" speed="5.56" length="4.99" width="2.00" shape="911.17,654.23 908.11,658.17"/>
    </edge>
    <edge id=":13639573216_1" function="internal">
        <lane id=":13639573216_1_0" index="0" allow="pedestrian bicycle" speed="5.56" length="5.00" width="2.00" shape="906.53,656.95 909.59,653.00"/>
    </edge>
    <edge id=":13639573216_w0" function="walkingarea">
        <lane id=":13639573216_w0_0" index="0" allow="pedestrian" speed="2.78" length="4.22" width="4.00" shape="911.96,654.85 908.80,652.39 908.16,652.95 907.83,653.04 907.49,652.99 907.16,652.82 906.82,652.52 905.53,654.07 906.03,654.83 906.12,655.21 906.10,655.59 905.97,655.96 905.74,656.33 908.90,658.78"/>
    </edge>
    <edge id=":13721232709_w0" function="walkingarea">
        <lane id=":13721232709_w0_0" index="0" allow="pedestrian" speed="2.78" length="2.00" width="4.00" shape="685.97,272.40 686.94,274.15 685.00,270.65 685.97,272.40"/>
    </edge>
    <edge id=":13721232722_0" function="internal">
        <lane id=":13721232722_0_0" index="0" allow="pedestrian bicycle" speed="5.56" length="4.01" width="2.00" shape="778.00,490.20 775.69,486.91"/>
    </edge>
    <edge id=":13721232722_1" function="internal">
        <lane id=":13721232722_1_0" index="0" allow="pedestrian bicycle" speed="5.56" length="3.98" width="2.00" shape="777.34,485.78 779.63,489.04"/>
    </edge>
    <edge id=":13721232722_w0" function="walkingarea">
        <lane id=":13721232722_w0_0" index="0" allow="pedestrian" speed="2.78" length="3.54" width="4.00" shape="777.19,490.78 780.44,488.45 780.91,486.56 780.01,484.77 777.26,483.90 773.96,486.16 774.28,486.92 774.26,487.26 774.12,487.56 773.85,487.83 773.47,488.08 774.37,489.86 775.39,489.60 775.87,489.69 776.33,489.91 776.77,490.27"/>
    </edge>
    <edge id=":13721232768_0" function="internal">
        <lane id=":13721232768_0_0" index="0" allow="pedestrian bicycle" speed="13.89" length="29.46" width="2.00" shape="780.38,628.78 774.61,627.22 766.01,625.74 757.34,624.66 751.33,624.31"/>
    </edge>
    <edge id=":13721232768_1" function="internal">
        <lane id=":13721232768_1_0" index="0" allow="pedestrian bicycle" speed="5.56" length="28.82" width="2.00" shape="780.38,628.78 774.51,627.32 765.86,625.71 757.61,623.66 752.90,620.88"/>
    </edge>
    <edge id=":13721232768_2" function="internal">
        <lane id=":13721232768_2_0" index="0" allow="pedestrian bicycle" speed="6.77" length="20.67" width="2.00" shape="783.63,625.05 776.14,623.09 773.46,622.86 775.59,624.34 782.53,627.54"/>
    </edge>
    <edge id=":13721232768_3" function="internal">
        <lane id=":13721232768_3_0" index="0" disallow="tram rail_urban rail rail_electric rail_fast ship container cable_car subway aircraft wheelchair scooter drone" speed="22.22" length="32.34" shape="783.63,625.05 777.26,624.33 767.55,624.11 757.81,624.17 751.33,624.31"/>
    </edge>
    <edge id=":13721232768_4" function="internal">
        <lane id=":13721232768_4_0" index="0" allow="pedestrian bicycle" speed="13.89" length="31.29" width="2.00" shape="783.63,625.05 777.15,624.43 767.40,624.07 758.09,623.16 752.90,620.88"/>
    </edge>
    <edge id=":13721232768_5" function="internal">
        <lane id=":13721232768_5_0" index="0" allow="pedestrian bicycle" speed="5.56" length="29.13" width="2.00" shape="754.65,619.91 759.42,622.65 767.81,624.60 776.60,626.11 782.53,627.54"/>
    </edge>
    <edge id=":13721232768_6" function="internal">
        <lane id=":13721232768_6_0" index="0" allow="pedestrian bicycle" speed="5.02" length="7.36" width="2.00" shape="754.65,619.91 755.36,621.76 755.04,623.12 753.70,623.97 751.33,624.31"/>
    </edge>
    <edge id=":13721232768_w0" function="walkingarea">
        <lane id=":13721232768_w0_0" index="0" allow="pedestrian" speed="2.78" length="19.34" width="4.00" shape="779.31,629.41 783.61,626.91 783.68,626.73 783.59,623.37 775.31,621.13 768.49,619.51 763.11,618.53 759.19,618.17 756.72,618.44 755.69,619.33 752.03,621.37 752.28,622.09 752.22,622.35 752.03,622.54 751.72,622.66 751.28,622.71 751.39,625.91 757.44,625.62 762.01,625.37 765.78,625.38 769.46,625.91 773.74,627.17"/>
    </edge>
    <edge id=":13721232773_w0" function="walkingarea">
        <lane id=":13721232773_w0_0" index="0" allow="pedestrian" speed="2.78" length="2.00" width="4.00" shape="642.81,370.09 643.79,368.35 641.83,371.83 642.81,370.09"/>
    </edge>
    <edge id=":13721232786_0" function="internal">
        <lane id=":13721232786_0_0" index="0" allow="pedestrian bicycle" speed="5.56" length="5.44" width="2.00" shape="745.77,509.98 742.55,505.60"/>
    </edge>
    <edge id=":13721232786_1" function="internal">
        <lane id=":13721232786_1_0" index="0" allow="pedestrian bicycle" speed="5.56" length="5.44" width="2.00" shape="744.16,504.41 747.38,508.79"/>
    </edge>
    <edge id=":13721232786_w0" function="walkingarea">
        <lane id=":13721232786_w0_0" index="0" allow="pedestrian" speed="2.78" length="4.46" width="4.00" shape="744.97,510.57 748.19,508.20 747.84,507.44 747.84,507.10 747.97,506.79 748.22,506.49 748.59,506.23 747.58,504.50 746.63,504.81 746.19,504.77 745.76,504.58 745.35,504.27 744.96,503.82 741.74,506.19 741.33,508.15 742.34,509.88"/>
    </edge>
    <edge id=":1872078095_w0" function="walkingarea">
        <lane id=":1872078095_w0_0" index="0" allow="pedestrian" speed="2.78" length="8.40" width="2.00" shape="564.13,764.16 562.41,763.14 571.35,768.46 569.63,767.44"/>
    </edge>
    <edge id=":1936511304_w0" function="walkingarea">
        <lane id=":1936511304_w0_0" index="0" allow="pedestrian" speed="2.78" length="2.00" width="4.00" shape="203.14,105.44 204.76,104.27 201.52,106.61 203.14,105.44"/>
    </edge>
    <edge id=":1936511337_0" function="internal">
        <lane id=":1936511337_0_0" index="0" disallow="tram rail_urban rail rail_electric rail_fast ship container cable_car subway aircraft wheelchair scooter drone" speed="27.78" length="19.37" shape="627.48,327.45 625.87,322.03 625.87,318.00 625.92,313.95 624.46,308.46"/>
        <lane id=":1936511337_0_1" index="1" disallow="tram rail_urban rail rail_electric rail_fast ship container cable_car subway aircraft wheelchair scooter drone" speed="27.78" length="19.37" shape="630.41,326.15 628.81,320.75 628.81,316.74 628.87,312.71 627.42,307.25"/>
    </edge>
    <edge id=":1936511337_2" function="internal">
        <lane id=":1936511337_2_0" index="0" disallow="tram rail_urban rail rail_electric rail_fast ship container cable_car subway aircraft wheelchair scooter drone" speed="27.78" length="22.36" shape="634.37,309.09 630.19,313.53 627.68,317.41 625.08,321.50 620.63,326.58"/>
        <lane id=":1936511337_2_1" index="1" disallow="tram rail_urban rail rail_electric rail_fast ship container cable_car subway aircraft wheelchair scooter drone" speed="27.78" length="22.36" shape="634.37,309.09 618.39,324.30"/>
        <lane id=":1936511337_2_2" index="2" disallow="tram rail_urban rail rail_electric rail_fast ship container cable_car subway aircraft wheelchair scooter drone" speed="27.78" length="22.36" shape="632.34,306.61 616.15,322.01"/>
        <lane id=":1936511337_2_3" index="3" disallow="tram rail_urban rail rail_electric rail_fast ship container cable_car subway aircraft wheelchair scooter drone" speed="27.78" length="22.36" shape="632.34,306.61 627.45,310.36 623.35,312.70 619.14,315.27 613.91,319.73"/>
    </edge>
    <edge id=":1936511337_6" function="internal">
        <lane id=":1936511337_6_0" index="0" disallow="tram rail_urban rail rail_electric rail_fast ship container cable_car subway aircraft wheelchair scooter drone" speed="4.94" length="5.99" shape="632.34,306.61 630.61,307.92 629.21,308.47 628.15,308.24 627.42,307.25"/>
    </edge>
    <edge id=":1936511337_w0" function="walkingarea">
        <lane id=":1936511337_w0_0" index="0" allow="pedestrian" speed="2.78" length="16.07" width="3.20" shape="626.23,328.57 640.85,322.07 638.56,307.54 634.28,302.74 627.24,302.60 621.32,305.02 612.78,318.59 621.75,327.72"/>
    </edge>
    <edge id=":1936511347_0" function="internal">
        <lane id=":1936511347_0_0" index="0" disallow="tram rail_urban rail rail_electric rail_fast ship container cable_car subway aircraft wheelchair scooter drone" speed="25.00" length="31.13" shape="598.59,362.44 594.36,366.24 588.26,371.86 582.30,378.60 578.48,385.81"/>
    </edge>
    <edge id=":1936511347_1" function="internal">
        <lane id=":1936511347_1_0" index="0" disallow="tram rail_urban rail rail_electric rail_fast ship container cable_car subway aircraft wheelchair scooter drone" speed="27.78" length="31.19" shape="595.03,359.87 589.89,368.36 585.18,374.38 581.26,379.63 578.48,385.81"/>
        <lane id=":1936511347_1_1" index="1" disallow="tram rail_urban rail rail_electric rail_fast ship container cable_car subway aircraft wheelchair scooter drone" speed="27.78" length="31.19" shape="592.18,358.42 586.95,367.10 582.16,373.30 578.20,378.69 575.41,384.92"/>
    </edge>
    <edge id=":1936511347_w0" function="walkingarea">
        <lane id=":1936511347_w0_0" index="0" allow="pedestrian" speed="2.78" length="21.99" width="3.20" shape="599.73,363.57 597.45,361.32 596.46,360.60 585.06,354.78 582.03,360.83 579.93,365.37 578.41,369.21 577.13,373.14 575.73,377.96 573.87,384.47 580.02,386.25 582.20,380.30 584.64,376.33 587.48,373.51 590.86,370.99 594.89,367.96"/>
    </edge>
    <edge id=":1936511437_0" function="internal">
        <lane id=":1936511437_0_0" index="0" disallow="pedestrian tram rail_urban rail rail_electric rail_fast ship container cable_car subway aircraft wheelchair scooter drone" speed="13.89" length="14.32" shape="824.87,706.30 820.65,706.94 817.66,707.22 814.88,707.99 811.30,710.09"/>
    </edge>
    <edge id=":1936511437_1" function="internal">
        <lane id=":1936511437_1_0" index="0" disallow="pedestrian tram rail_urban rail rail_electric rail_fast ship container cable_car subway aircraft wheelchair scooter drone" speed="6.88" length="1.88" shape="824.87,706.30 823.02,706.01"/>
    </edge>
    <edge id=":1936511437_4" function="internal">
        <lane id=":1936511437_4_0" index="0" disallow="pedestrian tram rail_urban rail rail_electric rail_fast ship container cable_car subway aircraft wheelchair scooter drone" speed="6.88" length="11.86" shape="823.02,706.01 822.81,705.98 821.79,703.94 821.80,700.17 822.85,694.67"/>
    </edge>
    <edge id=":1936511437_2" function="internal">
        <lane id=":1936511437_2_0" index="0" disallow="pedestrian tram rail_urban rail rail_electric rail_fast ship container cable_car subway aircraft wheelchair scooter drone" speed="15.33" length="18.90" shape="809.45,707.48 814.57,703.90 818.54,700.89 821.32,697.96 822.85,694.67"/>
    </edge>
    <edge id=":1936511437_3" function="internal">
        <lane id=":1936511437_3_0" index="0" disallow="pedestrian tram rail_urban rail rail_electric rail_fast ship container cable_car subway aircraft wheelchair scooter drone" speed="13.89" length="15.61" shape="809.45,707.48 813.34,705.16 816.36,704.26 819.61,703.89 824.21,703.17"/>
    </edge>
    <edge id=":1936511437_c0" function="crossing" crossingEdges="-176728955#1 176728955#1">
        <lane id=":1936511437_c0_0" index="0" allow="pedestrian" speed="2.78" length="6.40" width="4.00" shape="821.92,702.02 823.25,708.28" outlineShape="823.88,701.60 825.21,707.86 822.34,708.34 821.24,708.44 819.93,702.26 820.47,702.20"/>
    </edge>
    <edge id=":1936511437_w0" function="walkingarea">
        <lane id=":1936511437_w0_0" index="0" allow="pedestrian" speed="2.78" length="8.82" width="4.00" shape="812.22,711.40 813.38,713.03 825.62,709.82 825.21,707.86 822.34,708.34 820.14,708.54 818.31,708.70 816.57,709.06 814.63,709.88"/>
    </edge>
    <edge id=":1936511437_w1" function="walkingarea">
        <lane id=":1936511437_w1_0" index="0" allow="pedestrian" speed="2.78" length="10.80" width="4.00" shape="823.88,701.60 823.46,699.64 824.40,695.05 821.30,694.28 807.37,704.54 808.52,706.17 811.39,704.34 813.67,703.30 815.71,702.78 817.87,702.50 820.47,702.20"/>
    </edge>
    <edge id=":1936511473_w0" function="walkingarea">
        <lane id=":1936511473_w0_0" index="0" allow="pedestrian" speed="2.78" length="8.40" width="2.00" shape="701.21,950.67 699.26,950.20 709.38,952.62 707.43,952.15"/>
    </edge>
    <edge id=":3352633997_w0" function="walkingarea">
        <lane id=":3352633997_w0_0" index="0" allow="pedestrian" speed="2.78" length="0.28" width="2.00" shape="833.90,250.53 834.16,248.55 833.36,250.38 833.55,250.46 833.62,250.48 833.69,250.50 833.78,250.51"/>
    </edge>
    <edge id=":3391063393_w0" function="walkingarea">
        <lane id=":3391063393_w0_0" index="0" allow="pedestrian" speed="2.78" length="0.10" width="3.20" shape="600.69,189.76 603.89,189.68 600.75,190.15 603.83,189.29"/>
    </edge>
    <edge id=":3893667689_w0" function="walkingarea">
        <lane id=":3893667689_w0_0" index="0" allow="pedestrian" speed="2.78" length="3.20" width="6.40" shape="544.07,594.56 544.13,591.36 544.01,597.76 544.07,594.56"/>
    </edge>
    <edge id=":3893667700_0" function="internal">
        <lane id=":3893667700_0_0" index="0" disallow="pedestrian tram rail_urban rail rail_electric rail_fast ship container cable_car subway aircraft wheelchair scooter drone" speed="5.94" length="7.10" shape="568.47,431.17 568.19,433.51 568.44,435.29 569.22,436.53 570.53,437.21"/>
    </edge>
    <edge id=":3893667700_w0" function="walkingarea">
        <lane id=":3893667700_w0_0" index="0" allow="pedestrian" speed="2.78" length="8.18" width="3.20" shape="570.93,435.66 571.43,433.73 570.04,431.49 566.90,430.84 563.77,430.19 568.83,443.80 569.33,441.86"/>
    </edge>
    <edge id=":436856319_0" function="internal">
        <lane id=":436856319_0_0" index="0" disallow="tram rail_urban rail rail_electric rail_fast ship container cable_car subway aircraft wheelchair scooter drone" speed="27.78" length="5.42" shape="933.02,464.05 934.60,458.87"/>
    </edge>
    <edge id=":436856319_w0" function="walkingarea">
        <lane id=":436856319_w0_0" index="0" allow="pedestrian" speed="2.78" length="4.79" width="3.20" shape="936.37,463.67 937.15,461.83 936.34,461.25 936.11,460.87 936.00,460.42 936.01,459.91 936.13,459.33 933.07,458.40 932.68,459.12 932.41,459.31 932.08,459.39 931.71,459.34 931.28,459.19 930.42,460.99 931.26,461.62 931.50,462.02 931.62,462.48 931.61,463.00 931.49,463.58 934.55,464.52 934.94,463.78 935.22,463.59 935.55,463.50 935.93,463.53"/>
    </edge>
    <edge id=":436876370_0" function="internal">
        <lane id=":436876370_0_0" index="0" disallow="tram rail_urban rail rail_electric rail_fast ship container cable_car subway aircraft wheelchair scooter drone" speed="27.78" length="7.08" shape="578.62,596.83 571.54,596.68"/>
    </edge>
    <edge id=":436876370_1" function="internal">
        <lane id=":436876370_1_0" index="0" disallow="tram rail_urban rail rail_electric rail_fast ship container cable_car subway aircraft wheelchair scooter drone" speed="9.58" length="7.17" shape="573.25,589.72 574.66,591.33 575.69,592.49 576.92,593.24 578.91,593.64"/>
    </edge>
    <edge id=":436876370_2" function="internal">
        <lane id=":436876370_2_0" index="0" disallow="tram rail_urban rail rail_electric rail_fast ship container cable_car subway aircraft wheelchair scooter drone" speed="5.87" length="11.44" shape="573.25,589.72 575.70,592.82 576.24,595.02 574.85,596.30 571.54,596.68"/>
    </edge>
    <edge id=":436876370_3" function="internal">
        <lane id=":436876370_3_0" index="0" disallow="tram rail_urban rail rail_electric rail_fast ship container cable_car subway aircraft wheelchair scooter drone" speed="27.78" length="7.31" shape="571.60,593.48 578.91,593.64"/>
    </edge>
    <edge id=":436876370_w0" function="walkingarea">
        <lane id=":436876370_w0_0" index="0" allow="pedestrian" speed="2.78" length="6.36" width="6.40" shape="578.47,598.42 579.06,592.05 577.02,591.50 576.40,591.01 575.86,590.37 575.24,589.57 574.40,588.61 572.09,590.83 572.50,591.42 572.50,591.63 572.35,591.77 572.06,591.86 571.63,591.88 571.51,598.28"/>
    </edge>
    <edge id=":436876371_0" function="internal">