<?xml version='1.0' encoding='utf-8'?>
<routes>
  <vType id="adult" vClass="pedestrian" minGap="0.25" width="0.5" length="0.25" maxSpeed="1.5" speedDev="0.1" />
  <vType id="elderly" vClass="pedestrian" minGap="0.25" width="0.5" length="0.25" maxSpeed="1.13" speedDev="0.15" color="255,0,0" />
  <person id="ped_0" depart="2.24" type="adult">
    <walk from="-176728955#2" to="176728955#2" />
  </person>
  <person id="ped_1" depart="8.24" type="adult">
    <walk from="-176728955#2" to="176728955#2" />
  </person>
  <person id="ped_2" depart="13.60" type="adult">
    <walk from="-176728955#2" to="176728955#2" />
  </person>
  <person id="ped_3" depart="15.30" type="adult">
    <walk from="-176728955#2" to="176728955#2" />
  </person>
  <person id="ped_4" depart="16.34" type="adult">
    <walk from="-176728955#2" to="176728955#2" />
  </person>
  <person id="ped_5" depart="23.96" type="adult">
    <walk from="-176728955#2" to="176728955#2" />
  </person>
  <person id="ped_6" depart="26.43" type="adult">
    <walk from="-176728955#2" to="176728955#2" />
  </person>
  <person id="ped_7" depart="30.84" type="adult">
    <walk from="-176728955#2" to="176728955#2" />
  </person>
  <person id="ped_8" depart="30.92" type="adult">
    <walk from="-176728955#2" to="176728955#2" />
  </person>
  <person id="ped_9" depart="34.86" type="elderly">
    <walk from="-176728955#2" to="176728955#2" />
  </person>
  <person id="ped_10" depart="35.17" type="adult">
    <walk from="-176728955#2" to="176728955#2" />
  </person>
  <person id="ped_11" depart="37.78" type="adult">
    <walk from="-176728955#2" to="176728955#2" />
  </person>
  <person id="ped_12" depart="40.92" type="elderly">
    <walk from="-176728955#2" to="176728955#2" />
  </person>
  <person id="ped_13" depart="42.21" type="adult">
    <walk from="-176728955#2" to="176728955#2" />
  </person>
  <person id="ped_14" depart="46.04" type="adult">
    <walk from="-176728955#2" to="176728955#2" />
  </person>
  <person id="ped_15" depart="47.02" type="adult">
    <walk from="-176728955#2" to="176728955#2" />
  </person>
  <person id="ped_16" depart="51.08" type="adult">
    <walk from="-176728955#2" to="176728955#2" />
  </person>
  <person id="ped_17" depart="52.66" type="elderly">
    <walk from="-176728955#2" to="176728955#2" />
  </person>
  <person id="ped_18" depart="53.29" type="adult">
    <walk from="-176728955#2" to="176728955#2" />
  </person>
  <person id="ped_19" depart="54.96" type="adult">
    <walk from="-176728955#2" to="176728955#2" />
  </person>
  <person id="ped_20" depart="55.97" type="adult">
    <walk from="-176728955#2" to="176728955#2" />
  </person>
  <person id="ped_21" depart="59.24" type="adult">
    <walk from="-176728955#2" to="176728955#2" />
  </person>
  <person id="ped_22" depart="62.69" type="adult">
    <walk from="-176728955#2" to="176728955#2" />
  </person>
  <person id="ped_23" depart="72.15" type="adult">
    <walk from="-176728955#2" to="176728955#2" />
  </person>
  <person id="ped_24" depart="76.37" type="adult">
    <walk from="-176728955#2" to="176728955#2" />
  </person>
  <person id="ped_25" depart="78.17" type="adult">
    <walk from="-176728955#2" to="176728955#2" />
  </person>
  <person id="ped_26" depart="80.14" type="adult">
    <walk from="-176728955#2" to="176728955#2" />
  </person>
  <person id="ped_27" depart="85.65" type="adult">
    <walk from="-176728955#2" to="176728955#2" />
  </person>
  <person id="ped_28" depart="89.10" type="adult">
    <walk from="-176728955#2" to="176728955#2" />
  </person>
  <person id="ped_29" depart="92.54" type="adult">
    <walk from="-176728955#2" to="176728955#2" />
  </person>
  <person id="ped_30" depart="98.24" type="adult">
    <walk from="-176728955#2" to="176728955#2" />
  </person>
  <person id="ped_31" depart="100.98" type="adult">
    <walk from="-176728955#2" to="176728955#2" />
  </person>
  <person id="ped_32" depart="101.51" type="adult">
    <walk from="-176728955#2" to="176728955#2" />
  </person>
  <person id="ped_33" depart="103.78" type="elderly">
    <walk from="-176728955#2" to="176728955#2" />
  </person>
  <person id="ped_34" depart="113.69" type="adult">
    <walk from="-176728955#2" to="176728955#2" />
  </person>
  <person id="ped_35" depart="120.95" type="adult">
    <walk from="-176728955#2" to="176728955#2" />
  </person>
  <person id="ped_36" depart="121.84" type="adult">
    <walk from="-176728955#2" to="176728955#2" />
  </person>
  <person id="ped_37" depart="123.21" type="adult">
    <walk from="-176728955#2" to="176728955#2" />
  </person>
  <person id="ped_38" depart="134.34" type="adult">
    <walk from="-176728955#2" to="176728955#2" />
  </person>
  <person id="ped_39" depart="134.60" type="elderly">
    <walk from="-176728955#2" to="176728955#2" />
  </person>
  <person id="ped_40" depart="135.97" type="adult">
    <walk from="-176728955#2" to="176728955#2" />
  </person>
  <person id="ped_41" depart="136.17" type="adult">
    <walk from="-176728955#2" to="176728955#2" />
  </person>
  <person id="ped_42" depart="139.41" type="adult">
    <walk from="-176728955#2" to="176728955#2" />
  </person>
  <person id="ped_43" depart="145.03" type="adult">
    <walk from="-176728955#2" to="176728955#2" />
  </person>
  <person id="ped_44" depart="146.99" type="adult">
    <walk from="-176728955#2" to="176728955#2" />
  </person>
  <person id="ped_45" depart="151.05" type="adult">
    <walk from="-176728955#2" to="176728955#2" />
  </person>
  <person id="ped_46" depart="152.10" type="adult">
    <walk from="-176728955#2" to="176728955#2" />
  </person>
  <person id="ped_47" depart="161.50" type="elderly">
    <walk from="-176728955#2" to="176728955#2" />
  </person>
  <person id="ped_48" depart="165.96" type="adult">
    <walk from="-176728955#2" to="176728955#2" />
  </person>
  <person id="ped_49" depart="166.10" type="elderly">
    <walk from="-176728955#2" to="176728955#2" />
  </person>
  <person id="ped_50" depart="166.75" type="adult">
    <walk from="-176728955#2" to="176728955#2" />
  </person>
  <person id="ped_51" depart="168.67" type="adult">
    <walk from="-176728955#2" to="176728955#2" />
  </person>
  <person id="ped_52" depart="169.76" type="adult">
    <walk from="-176728955#2" to="176728955#2" />
  </person>
  <person id="ped_53" depart="179.62" type="elderly">
    <walk from="-176728955#2" to="176728955#2" />
  </person>
  <person id="ped_54" depart="189.37" type="adult">
    <walk from="-176728955#2" to="176728955#2" />
  </person>
  <person id="ped_55" depart="191.18" type="adult">
    <walk from="-176728955#2" to="176728955#2" />
  </person>
  <person id="ped_56" depart="196.92" type="adult">
    <walk from="-176728955#2" to="176728955#2" />
  </person>
  <person id="ped_57" depart="200.61" type="adult">
    <walk from="-176728955#2" to="176728955#2" />
  </person>
  <person id="ped_58" depart="204.43" type="adult">
    <walk from="-176728955#2" to="176728955#2" />
  </person>
  <person id="ped_59" depart="208.74" type="elderly">
    <walk from="-176728955#2" to="176728955#2" />
  </person>
  <person id="ped_60" depart="211.09" type="adult">
    <walk from="-176728955#2" to="176728955#2" />
  </person>
  <person id="ped_61" depart="212.34" type="elderly">
    <walk from="-176728955#2" to="176728955#2" />
  </person>
  <person id="ped_62" depart="214.72" type="elderly">
    <walk from="-176728955#2" to="176728955#2" />
  </person>
  <person id="ped_63" depart="215.23" type="adult">
    <walk from="-176728955#2" to="176728955#2" />
  </person>
  <person id="ped_64" depart="220.36" type="adult">
    <walk from="-176728955#2" to="176728955#2" />
  </person>
  <person id="ped_65" depart="221.61" type="adult">
    <walk from="-176728955#2" to="176728955#2" />
  </person>
  <person id="ped_66" depart="221.72" type="adult">
    <walk from="-176728955#2" to="176728955#2" />
  </person>
  <person id="ped_67" depart="230.97" type="elderly">
    <walk from="-176728955#2" to="176728955#2" />
  </person>
  <person id="ped_68" depart="232.05" type="adult">
    <walk from="-176728955#2" to="176728955#2" />
  </person>
  <person id="ped_69" depart="235.91" type="adult">
    <walk from="-176728955#2" to="176728955#2" />
  </person>
  <person id="ped_70" depart="240.87" type="adult">
    <walk from="-176728955#2" to="176728955#2" />
  </person>
  <person id="ped_71" depart="255.21" type="adult">
    <walk from="-176728955#2" to="176728955#2" />
  </person>
  <person id="ped_72" depart="256.73" type="adult">
    <walk from="-176728955#2" to="176728955#2" />
  </person>
  <person id="ped_73" depart="256.99" type="adult">
    <walk from="-176728955#2" to="176728955#2" />
  </person>
  <person id="ped_74" depart="257.45" type="adult">
    <walk from="-176728955#2" to="176728955#2" />
  </person>
  <person id="ped_75" depart="261.59" type="adult">
    <walk from="-176728955#2" to="176728955#2" />
  </person>
  <person id="ped_76" depart="262.93" type="adult">
    <walk from="-176728955#2" to="176728955#2" />
  </person>
  <person id="ped_77" depart="267.55" type="adult">
    <walk from="-176728955#2" to="176728955#2" />
  </person>
  <person id="ped_78" depart="274.61" type="elderly">
    <walk from="-176728955#2" to="176728955#2" />
  </person>
  <person id="ped_79" depart="275.96" type="adult">
    <walk from="-176728955#2" to="176728955#2" />
  </person>
  <person id="ped_80" depart="279.77" type="adult">
    <walk from="-176728955#2" to="176728955#2" />
  </person>
  <person id="ped_81" depart="290.95" type="adult">
    <walk from="-176728955#2" to="176728955#2" />
  </person>
  <person id="ped_82" depart="297.36" type="adult">
    <walk from="-176728955#2" to="176728955#2" />
  </person>
  <person id="ped_83" depart="306.42" type="adult">
    <walk from="-176728955#2" to="176728955#2" />
  </person>
  <person id="ped_84" depart="306.68" type="adult">
    <walk from="-176728955#2" to="176728955#2" />
  </person>
  <person id="ped_85" depart="309.85" type="adult">
    <walk from="-176728955#2" to="176728955#2" />
  </person>
  <person id="ped_86" depart="314.12" type="adult">
    <walk from="-176728955#2" to="176728955#2" />
  </person>
  <person id="ped_87" depart="315.51" type="adult">
    <walk from="-176728955#2" to="176728955#2" />
  </person>
  <person id="ped_88" depart="317.32" type="adult">
    <walk from="-176728955#2" to="176728955#2" />
  </person>
  <person id="ped_89" depart="318.41" type="adult">
    <walk from="-176728955#2" to="176728955#2" />
  </person>
  <person id="ped_90" depart="319.22" type="adult">
    <walk from="-176728955#2" to="176728955#2" />
  </person>
  <person id="ped_91" depart="321.90" type="adult">
    <walk from="-176728955#2" to="176728955#2" />
  </person>
  <person id="ped_92" depart="325.39" type="adult">
    <walk from="-176728955#2" to="176728955#2" />
  </person>
  <person id="ped_93" depart="326.35" type="adult">
    <walk from="-176728955#2" to="176728955#2" />
  </person>
  <person id="ped_94" depart="328.34" type="adult">
    <walk from="-176728955#2" to="176728955#2" />
  </person>
  <person id="ped_95" depart="328.94" type="elderly">
    <walk from="-176728955#2" to="176728955#2" />
  </person>
  <person id="ped_96" depart="337.43" type="adult">
    <walk from="-176728955#2" to="176728955#2" />
  </person>
  <person id="ped_97" depart="339.80" type="adult">
    <walk from="-176728955#2" to="176728955#2" />
  </person>
  <person id="ped_98" depart="341.27" type="adult">
    <walk from="-176728955#2" to="176728955#2" />
  </person>
  <person id="ped_99" depart="344.26" type="elderly">
    <walk from="-176728955#2" to="176728955#2" />
  </person>
  <person id="ped_100" depart="348.18" type="adult">
    <walk from="-176728955#2" to="176728955#2" />
  </person>
  <person id="ped_101" depart="350.99" type="adult">
    <walk from="-176728955#2" to="176728955#2" />
  </person>
  <person id="ped_102" depart="353.06" type="adult">
    <walk from="-176728955#2" to="176728955#2" />
  </person>
  <person id="ped_103" depart="357.68" type="adult">
    <walk from="-176728955#2" to="176728955#2" />
  </person>
  <person id="ped_104" depart="361.39" type="adult">
    <walk from="-176728955#2" to="176728955#2" />
  </person>
  <person id="ped_105" depart="362.29" type="adult">
    <walk from="-176728955#2" to="176728955#2" />
  </person>
  <person id="ped_106" depart="363.28" type="adult">
    <walk from="-176728955#2" to="176728955#2" />
  </person>
  <person id="ped_107" depart="374.08" type="adult">
    <walk from="-176728955#2" to="176728955#2" />
  </person>
  <person id="ped_108" depart="376.06" type="adult">
    <walk from="-176728955#2" to="176728955#2" />
  </person>
  <person id="ped_109" depart="383.16" type="adult">
    <walk from="-176728955#2" to="176728955#2" />
  </person>
  <person id="ped_110" depart="387.21" type="adult">
    <walk from="-176728955#2" to="176728955#2" />
  </person>
  <person id="ped_111" depart="388.77" type="adult">
    <walk from="-176728955#2" to="176728955#2" />
  </person>
  <person id="ped_112" depart="392.95" type="elderly">
    <walk from="-176728955#2" to="176728955#2" />
  </person>
  <person id="ped_113" depart="416.65" type="adult">
    <walk from="-176728955#2" to="176728955#2" />
  </person>
  <person id="ped_114" depart="419.30" type="adult">
    <walk from="-176728955#2" to="176728955#2" />
  </person>
  <person id="ped_115" depart="424.93" type="adult">
    <walk from="-176728955#2" to="176728955#2" />
  </person>
  <person id="ped_116" depart="430.96" type="adult">
    <walk from="-176728955#2" to="176728955#2" />
  </person>
  <person id="ped_117" depart="432.86" type="adult">
    <walk from="-176728955#2" to="176728955#2" />
  </person>
  <person id="ped_118" depart="433.19" type="adult">
    <walk from="-176728955#2" to="176728955#2" />
  </person>
  <person id="ped_119" depart="434.79" type="adult">
    <walk from="-176728955#2" to="176728955#2" />
  </person>
  <person id="ped_120" depart="436.54" type="adult">
    <walk from="-176728955#2" to="176728955#2" />
  </person>
  <person id="ped_121" depart="451.89" type="adult">
    <walk from="-176728955#2" to="176728955#2" />
  </person>
  <person id="ped_122" depart="452.13" type="adult">
    <walk from="-176728955#2" to="176728955#2" />
  </person>
  <person id="ped_123" depart="454.57" type="adult">
    <walk from="-176728955#2" to="176728955#2" />
  </person>
  <person id="ped_124" depart="454.70" type="adult">
    <walk from="-176728955#2" to="176728955#2" />
  </person>
  <person id="ped_125" depart="455.53" type="adult">
    <walk from="-176728955#2" to="176728955#2" />
  </person>
  <person id="ped_126" depart="456.67" type="adult">
    <walk from="-176728955#2" to="176728955#2" />
  </person>
  <person id="ped_127" depart="458.72" type="adult">
    <walk from="-176728955#2" to="176728955#2" />
  </person>
  <person id="ped_128" depart="459.71" type="adult">
    <walk from="-176728955#2" to="176728955#2" />
  </person>
  <person id="ped_129" depart="461.91" type="adult">
    <walk from="-176728955#2" to="176728955#2" />
  </person>
  <person id="ped_130" depart="463.49" type="adult">
    <walk from="-176728955#2" to="176728955#2" />
  </person>
  <person id="ped_131" depart="469.87" type="elderly">
    <walk from="-176728955#2" to="176728955#2" />
  </person>
  <person id="ped_132" depart="470.02" type="adult">
    <walk from="-176728955#2" to="176728955#2" />
  </person>
  <person id="ped_133" depart="470.68" type="elderly">
    <walk from="-176728955#2" to="176728955#2" />
  </person>
  <person id="ped_134" depart="473.29" type="adult">
    <walk from="-176728955#2" to="176728955#2" />
  </person>
  <person id="ped_135" depart="474.13" type="adult">
    <walk from="-176728955#2" to="176728955#2" />
  </person>
  <person id="ped_136" depart="483.19" type="adult">
    <walk from="-176728955#2" to="176728955#2" />
  </person>
  <person id="ped_137" depart="483.56" type="adult">
    <walk from="-176728955#2" to="176728955#2" />
  </person>
  <person id="ped_138" depart="487.88" type="adult">
    <walk from="-176728955#2" to="176728955#2" />
  </person>
  <person id="ped_139" depart="488.55" type="adult">
    <walk from="-176728955#2" to="176728955#2" />
  </person>
  <person id="ped_140" depart="488.62" type="adult">
    <walk from="-176728955#2" to="176728955#2" />
  </person>
  <person id="ped_141" depart="490.15" type="adult">
    <walk from="-176728955#2" to="176728955#2" />
  </person>
  <person id="ped_142" depart="491.23" type="adult">
    <walk from="-176728955#2" to="176728955#2" />
  </person>
  <person id="ped_143" depart="491.27" type="adult">
    <walk from="-176728955#2" to="176728955#2" />
  </person>
  <person id="ped_144" depart="497.37" type="adult">
    <walk from="-176728955#2" to="176728955#2" />
  </person>
  <person id="ped_145" depart="505.64" type="adult">
    <walk from="-176728955#2" to="176728955#2" />
  </person>
  <person id="ped_146" depart="507.62" type="adult">
    <walk from="-176728955#2" to="176728955#2" />
  </person>
  <person id="ped_147" depart="517.11" type="adult">
    <walk from="-176728955#2" to="176728955#2" />
  </person>
  <person id="ped_148" depart="518.24" type="adult">
    <walk from="-176728955#2" to="176728955#2" />
  </person>
  <person id="ped_149" depart="519.98" type="adult">
    <walk from="-176728955#2" to="176728955#2" />
  </person>
  <person id="ped_150" depart="525.04" type="adult">
    <walk from="-176728955#2" to="176728955#2" />
  </person>
  <person id="ped_151" depart="526.53" type="adult">
    <walk from="-176728955#2" to="176728955#2" />
  </person>
  <person id="ped_152" depart="530.11" type="elderly">
    <walk from="-176728955#2" to="176728955#2" />
  </person>
  <person id="ped_153" depart="532.59" type="adult">
    <walk from="-176728955#2" to="176728955#2" />
  </person>
  <person id="ped_154" depart="550.38" type="elderly">
    <walk from="-176728955#2" to="176728955#2" />
  </person>
  <person id="ped_155" depart="551.33" type="adult">
    <walk from="-176728955#2" to="176728955#2" />
  </person>
  <person id="ped_156" depart="553.87" type="adult">
    <walk from="-176728955#2" to="176728955#2" />
  </person>
  <person id="ped_157" depart="554.08" type="adult">
    <walk from="-176728955#2" to="176728955#2" />
  </person>
  <person id="ped_158" depart="559.38" type="adult">
    <walk from="-176728955#2" to="176728955#2" />
  </person>
  <person id="ped_159" depart="560.20" type="adult">
    <walk from="-176728955#2" to="176728955#2" />
  </person>
  <person id="ped_160" depart="560.50" type="adult">
    <walk from="-176728955#2" to="176728955#2" />
  </person>
  <person id="ped_161" depart="560.67" type="adult">
    <walk from="-176728955#2" to="176728955#2" />
  </person>
  <person id="ped_162" depart="569.65" type="elderly">
    <walk from="-176728955#2" to="176728955#2" />
  </person>
  <person id="ped_163" depart="573.03" type="adult">
    <walk from="-176728955#2" to="176728955#2" />
  </person>
  <person id="ped_164" depart="573.20" type="adult">
    <walk from="-176728955#2" to="176728955#2" />
  </person>
  <person id="ped_165" depart="573.86" type="elderly">
    <walk from="-176728955#2" to="176728955#2" />
  </person>
  <person id="ped_166" depart="575.65" type="adult">
    <walk from="-176728955#2" to="176728955#2" />
  </person>
  <person id="ped_167" depart="578.33" type="adult">
    <walk from="-176728955#2" to="176728955#2" />
  </person>
  <person id="ped_168" depart="582.76" type="adult">
    <walk from="-176728955#2" to="176728955#2" />
  </person>
  <person id="ped_169" depart="584.38" type="adult">
    <walk from="-176728955#2" to="176728955#2" />
  </person>
  <person id="ped_170" depart="587.22" type="adult">
    <walk from="-176728955#2" to="176728955#2" />
  </person>
  <person id="ped_171" depart="594.28" type="adult">
    <walk from="-176728955#2" to="176728955#2" />
  </person>
  <person id="ped_172" depart="595.38" type="adult">
    <walk from="-176728955#2" to="176728955#2" />
  </person>
  <person id="ped_173" depart="597.19" type="elderly">
    <walk from="-176728955#2" to="176728955#2" />
  </person>
  <person id="ped_174" depart="608.22" type="adult">
    <walk from="-176728955#2" to="176728955#2" />
  </person>
  <person id="ped_175" depart="610.43" type="adult">
    <walk from="-176728955#2" to="176728955#2" />
  </person>
  <person id="ped_176" depart="611.75" type="adult">
    <walk from="-176728955#2" to="176728955#2" />
  </person>
  <person id="ped_177" depart="613.31" type="adult">
    <walk from="-176728955#2" to="176728955#2" />
  </person>
  <person id="ped_178" depart="614.24" type="adult">
    <walk from="-176728955#2" to="176728955#2" />
  </person>
  <person id="ped_179" depart="619.60" type="adult">
    <walk from="-176728955#2" to="176728955#2" />
  </person>
  <person id="ped_180" depart="621.76" type="adult">
    <walk from="-176728955#2" to="176728955#2" />
  </person>
  <person id="ped_181" depart="623.76" type="adult">
    <walk from="-176728955#2" to="176728955#2" />
  </person>
  <person id="ped_182" depart="624.25" type="elderly">
    <walk from="-176728955#2" to="176728955#2" />
  </person>
  <person id="ped_183" depart="631.75" type="adult">
    <walk from="-176728955#2" to="176728955#2" />
  </person>
  <person id="ped_184" depart="636.47" type="adult">
    <walk from="-176728955#2" to="176728955#2" />
  </person>
  <person id="ped_185" depart="637.16" type="elderly">
    <walk from="-176728955#2" to="176728955#2" />
  </person>
  <person id="ped_186" depart="649.22" type="adult">
    <walk from="-176728955#2" to="176728955#2" />
  </person>
  <person id="ped_187" depart="652.51" type="elderly">
    <walk from="-176728955#2" to="176728955#2" />
  </person>
  <person id="ped_188" depart="658.39" type="adult">
    <walk from="-176728955#2" to="176728955#2" />
  </person>
  <person id="ped_189" depart="660.17" type="adult">
    <walk from="-176728955#2" to="176728955#2" />
  </person>
  <person id="ped_190" depart="661.68" type="adult">
    <walk from="-176728955#2" to="176728955#2" />
  </person>
  <person id="ped_191" depart="664.30" type="adult">
    <walk from="-176728955#2" to="176728955#2" />
  </person>
  <person id="ped_192" depart="672.71" type="adult">
    <walk from="-176728955#2" to="176728955#2" />
  </person>
  <person id="ped_193" depart="673.05" type="adult">
    <walk from="-176728955#2" to="176728955#2" />
  </person>
  <person id="ped_194" depart="678.66" type="adult">
    <walk from="-176728955#2" to="176728955#2" />
  </person>
  <person id="ped_195" depart="685.31" type="adult">
    <walk from="-176728955#2" to="176728955#2" />
  </person>
  <person id="ped_196" depart="687.02" type="adult">
    <walk from="-176728955#2" to="176728955#2" />
  </person>
  <person id="ped_197" depart="691.79" type="adult">
    <walk from="-176728955#2" to="176728955#2" />
  </person>
  <person id="ped_198" depart="696.75" type="adult">
    <walk from="-176728955#2" to="176728955#2" />
  </person>
  <person id="ped_199" depart="697.60" type="adult">
    <walk from="-176728955#2" to="176728955#2" />
  </person>
  <person id="ped_200" depart="698.77" type="adult">
    <walk from="-176728955#2" to="176728955#2" />
  </person>
  <person id="ped_201" depart="700.48" type="adult">
    <walk from="-176728955#2" to="176728955#2" />
  </person>
  <person id="ped_202" depart="713.38" type="elderly">
    <walk from="-176728955#2" to="176728955#2" />
  </person>
  <person id="ped_203" depart="717.22" type="adult">
    <walk from="-176728955#2" to="176728955#2" />
  </person>
  <person id="ped_204" depart="718.29" type="adult">
    <walk from="-176728955#2" to="176728955#2" />
  </person>
  <person id="ped_205" depart="721.17" type="adult">
    <walk from="-176728955#2" to="176728955#2" />
  </person>
  <person id="ped_206" depart="727.35" type="adult">
    <walk from="-176728955#2" to="176728955#2" />
  </person>
  <person id="ped_207" depart="730.04" type="adult">
    <walk from="-176728955#2" to="176728955#2" />
  </person>
  <person id="ped_208" depart="736.00" type="adult">
    <walk from="-176728955#2" to="176728955#2" />
  </person>
  <person id="ped_209" depart="744.44" type="adult">
    <walk from="-176728955#2" to="176728955#2" />
  </person>
  <person id="ped_210" depart="757.95" type="adult">
    <walk from="-176728955#2" to="176728955#2" />
  </person>
  <person id="ped_211" depart="761.68" type="adult">
    <walk from="-176728955#2" to="176728955#2" />
  </person>
  <person id="ped_212" depart="764.04" type="elderly">
    <walk from="-176728955#2" to="176728955#2" />
  </person>
  <person id="ped_213" depart="765.75" type="adult">
    <walk from="-176728955#2" to="176728955#2" />
  </person>
  <person id="ped_214" depart="777.77" type="adult">
    <walk from="-176728955#2" to="176728955#2" />
  </person>
  <person id="ped_215" depart="783.64" type="adult">
    <walk from="-176728955#2" to="176728955#2" />
  </person>
  <person id="ped_216" depart="786.83" type="elderly">
    <walk from="-176728955#2" to="176728955#2" />
  </person>
  <person id="ped_217" depart="787.17" type="adult">
    <walk from="-176728955#2" to="176728955#2" />
  </person>
  <person id="ped_218" depart="787.42" type="adult">
    <walk from="-176728955#2" to="176728955#2" />
  </person>
  <person id="ped_219" depart="792.72" type="adult">
    <walk from="-176728955#2" to="176728955#2" />
  </person>
  <person id="ped_220" depart="812.91" type="elderly">
    <walk from="-176728955#2" to="176728955#2" />
  </person>
  <person id="ped_221" depart="815.76" type="elderly">
    <walk from="-176728955#2" to="176728955#2" />
  </person>
  <person id="ped_222" depart="832.59" type="adult">
    <walk from="-176728955#2" to="176728955#2" />
  </person>
  <person id="ped_223" depart="837.08" type="elderly">
    <walk from="-176728955#2" to="176728955#2" />
  </person>
  <person id="ped_224" depart="838.59" type="adult">
    <walk from="-176728955#2" to="176728955#2" />
  </person>
  <person id="ped_225" depart="843.53" type="adult">
    <walk from="-176728955#2" to="176728955#2" />
  </person>
  <person id="ped_226" depart="844.31" type="adult">
    <walk from="-176728955#2" to="176728955#2" />
  </person>
  <person id="ped_227" depart="846.41" type="adult">
    <walk from="-176728955#2" to="176728955#2" />
  </person>
  <person id="ped_228" depart="853.80" type="adult">
    <walk from="-176728955#2" to="176728955#2" />
  </person>
  <person id="ped_229" depart="855.58" type="adult">
    <walk from="-176728955#2" to="176728955#2" />
  </person>
  <person id="ped_230" depart="858.48" type="adult">
    <walk from="-176728955#2" to="176728955#2" />
  </person>
  <person id="ped_231" depart="859.08" type="elderly">
    <walk from="-176728955#2" to="176728955#2" />
  </person>
  <person id="ped_232" depart="869.08" type="adult">
    <walk from="-176728955#2" to="176728955#2" />
  </person>
  <person id="ped_233" depart="869.26" type="elderly">
    <walk from="-176728955#2" to="176728955#2" />
  </person>
  <person id="ped_234" depart="871.12" type="adult">
    <walk from="-176728955#2" to="176728955#2" />
  </person>
  <person id="ped_235" depart="877.51" type="adult">
    <walk from="-176728955#2" to="176728955#2" />
  </person>
  <person id="ped_236" depart="880.16" type="elderly">
    <walk from="-176728955#2" to="176728955#2" />
  </person>
  <person id="ped_237" depart="881.74" type="adult">
    <walk from="-176728955#2" to="176728955#2" />
  </person>
  <person id="ped_238" depart="884.45" type="adult">
    <walk from="-176728955#2" to="176728955#2" />
  </person>
  <person id="ped_239" depart="890.55" type="elderly">
    <walk from="-176728955#2" to="176728955#2" />
  </person>
  <person id="ped_240" depart="894.55" type="elderly">
    <walk from="-176728955#2" to="176728955#2" />
  </person>
  <person id="ped_241" depart="903.35" type="elderly">
    <walk from="-176728955#2" to="176728955#2" />
  </person>
  <person id="ped_242" depart="904.76" type="adult">
    <walk from="-176728955#2" to="176728955#2" />
  </person>
  <person id="ped_243" depart="909.15" type="adult">
    <walk from="-176728955#2" to="176728955#2" />
  </person>
  <person id="ped_244" depart="922.23" type="adult">
    <walk from="-176728955#2" to="176728955#2" />
  </person>
  <person id="ped_245" depart="927.43" type="adult">
    <walk from="-176728955#2" to="176728955#2" />
  </person>
  <person id="ped_246" depart="930.17" type="adult">
    <walk from="-176728955#2" to="176728955#2" />
  </person>
  <person id="ped_247" depart="931.32" type="adult">
    <walk from="-176728955#2" to="176728955#2" />
  </person>
  <person id="ped_248" depart="942.16" type="adult">
    <walk from="-176728955#2" to="176728955#2" />
  </person>
  <person id="ped_249" depart="942.79" type="adult">
    <walk from="-176728955#2" to="176728955#2" />
  </person>
  <person id="ped_250" depart="943.21" type="adult">
    <walk from="-176728955#2" to="176728955#2" />
  </person>
  <person id="ped_251" depart="945.38" type="elderly">
    <walk from="-176728955#2" to="176728955#2" />
  </person>
  <person id="ped_252" depart="950.32" type="adult">
    <walk from="-176728955#2" to="176728955#2" />
  </person>
  <person id="ped_253" depart="951.23" type="adult">
    <walk from="-176728955#2" to="176728955#2" />
  </person>
  <person id="ped_254" depart="964.74" type="elderly">
    <walk from="-176728955#2" to="176728955#2" />
  </person>
  <person id="ped_255" depart="969.58" type="adult">
    <walk from="-176728955#2" to="176728955#2" />
  </person>
  <person id="ped_256" depart="971.23" type="adult">
    <walk from="-176728955#2" to="176728955#2" />
  </person>
  <person id="ped_257" depart="973.89" type="adult">
    <walk from="-176728955#2" to="176728955#2" />
  </person>
  <person id="ped_258" depart="974.26" type="adult">