<?xml version='1.0' encoding='utf-8'?>
<routes>
  <vType id="adult" vClass="pedestrian" minGap="0.25" width="0.5" length="0.25" maxSpeed="1.5" speedDev="0.1" />
  <vType id="elderly" vClass="pedestrian" minGap="0.25" width="0.5" length="0.25" maxSpeed="1.13" speedDev="0.15" color="255,0,0" />
  <person id="ped_0" depart="16.61" type="adult">
    <walk from="-176728955#2" to="176728955#2" />
  </person>
  <person id="ped_1" depart="19.35" type="adult">
    <walk from="-176728955#2" to="176728955#2" />
  </person>
  <person id="ped_2" depart="20.22" type="adult">
    <walk from="-176728955#2" to="176728955#2" />
  </person>
  <person id="ped_3" depart="32.29" type="elderly">
    <walk from="-176728955#2" to="176728955#2" />
  </person>
  <person id="ped_4" depart="32.66" type="adult">
    <walk from="-176728955#2" to="176728955#2" />
  </person>
  <person id="ped_5" depart="36.80" type="adult">
    <walk from="-176728955#2" to="176728955#2" />
  </person>
  <person id="ped_6" depart="36.84" type="adult">
    <walk from="-176728955#2" to="176728955#2" />
  </person>
  <person id="ped_7" depart="39.74" type="adult">
    <walk from="-176728955#2" to="176728955#2" />
  </person>
  <person id="ped_8" depart="43.41" type="adult">
    <walk from="-176728955#2" to="176728955#2" />
  </person>
  <person id="ped_9" depart="43.48" type="adult">
    <walk from="-176728955#2" to="176728955#2" />
  </person>
  <person id="ped_10" depart="43.82" type="adult">
    <walk from="-176728955#2" to="176728955#2" />
  </person>
  <person id="ped_11" depart="50.40" type="adult">
    <walk from="-176728955#2" to="176728955#2" />
  </person>
  <person id="ped_12" depart="50.69" type="adult">
    <walk from="-176728955#2" to="176728955#2" />
  </person>
  <person id="ped_13" depart="52.83" type="adult">
    <walk from="-176728955#2" to="176728955#2" />
  </person>
  <person id="ped_14" depart="57.46" type="adult">
    <walk from="-176728955#2" to="176728955#2" />
  </person>
  <person id="ped_15" depart="59.41" type="adult">
    <walk from="-176728955#2" to="176728955#2" />
  </person>
  <person id="ped_16" depart="60.83" type="adult">
    <walk from="-176728955#2" to="176728955#2" />
  </person>
  <person id="ped_17" depart="62.43" type="adult">
    <walk from="-176728955#2" to="176728955#2" />
  </person>
  <person id="ped_18" depart="62.67" type="adult">
    <walk from="-176728955#2" to="176728955#2" />
  </person>
  <person id="ped_19" depart="77.10" type="adult">
    <walk from="-176728955#2" to="176728955#2" />
  </person>
  <person id="ped_20" depart="77.88" type="adult">
    <walk from="-176728955#2" to="176728955#2" />
  </person>
  <person id="ped_21" depart="80.70" type="adult">
    <walk from="-176728955#2" to="176728955#2" />
  </person>
  <person id="ped_22" depart="81.21" type="adult">
    <walk from="-176728955#2" to="176728955#2" />
  </person>
  <person id="ped_23" depart="84.70" type="adult">
    <walk from="-176728955#2" to="176728955#2" />
  </person>
  <person id="ped_24" depart="85.26" type="elderly">
    <walk from="-176728955#2" to="176728955#2" />
  </person>
  <person id="ped_25" depart="90.46" type="elderly">
    <walk from="-176728955#2" to="176728955#2" />
  </person>
  <person id="ped_26" depart="93.74" type="adult">
    <walk from="-176728955#2" to="176728955#2" />
  </person>
  <person id="ped_27" depart="105.11" type="adult">
    <walk from="-176728955#2" to="176728955#2" />
  </person>
  <person id="ped_28" depart="112.49" type="adult">
    <walk from="-176728955#2" to="176728955#2" />
  </person>
  <person id="ped_29" depart="115.11" type="adult">
    <walk from="-176728955#2" to="176728955#2" />
  </person>
  <person id="ped_30" depart="120.73" type="adult">
    <walk from="-176728955#2" to="176728955#2" />
  </person>
  <person id="ped_31" depart="129.32" type="adult">
    <walk from="-176728955#2" to="176728955#2" />
  </person>
  <person id="ped_32" depart="132.11" type="adult">
    <walk from="-176728955#2" to="176728955#2" />
  </person>
  <person id="ped_33" depart="136.17" type="adult">
    <walk from="-176728955#2" to="176728955#2" />
  </person>
  <person id="ped_34" depart="139.93" type="elderly">
    <walk from="-176728955#2" to="176728955#2" />
  </person>
  <person id="ped_35" depart="142.17" type="adult">
    <walk from="-176728955#2" to="176728955#2" />
  </person>
  <person id="ped_36" depart="143.48" type="adult">
    <walk from="-176728955#2" to="176728955#2" />
  </person>
  <person id="ped_37" depart="144.10" type="elderly">
    <walk from="-176728955#2" to="176728955#2" />
  </person>
  <person id="ped_38" depart="145.58" type="elderly">
    <walk from="-176728955#2" to="176728955#2" />
  </person>
  <person id="ped_39" depart="151.77" type="adult">
    <walk from="-176728955#2" to="176728955#2" />
  </person>
  <person id="ped_40" depart="157.40" type="adult">
    <walk from="-176728955#2" to="176728955#2" />
  </person>
  <person id="ped_41" depart="161.20" type="adult">
    <walk from="-176728955#2" to="176728955#2" />
  </person>
  <person id="ped_42" depart="161.50" type="adult">
    <walk from="-176728955#2" to="176728955#2" />
  </person>
  <person id="ped_43" depart="162.12" type="adult">
    <walk from="-176728955#2" to="176728955#2" />
  </person>
  <person id="ped_44" depart="163.00" type="adult">
    <walk from="-176728955#2" to="176728955#2" />
  </person>
  <person id="ped_45" depart="163.50" type="adult">
    <walk from="-176728955#2" to="176728955#2" />
  </person>
  <person id="ped_46" depart="171.74" type="adult">
    <walk from="-176728955#2" to="176728955#2" />
  </person>
  <person id="ped_47" depart="184.41" type="elderly">
    <walk from="-176728955#2" to="176728955#2" />
  </person>
  <person id="ped_48" depart="192.13" type="adult">
    <walk from="-176728955#2" to="176728955#2" />
  </person>
  <person id="ped_49" depart="196.91" type="elderly">
    <walk from="-176728955#2" to="176728955#2" />
  </person>
  <person id="ped_50" depart="199.39" type="adult">
    <walk from="-176728955#2" to="176728955#2" />
  </person>
  <person id="ped_51" depart="200.60" type="adult">
    <walk from="-176728955#2" to="176728955#2" />
  </person>
  <person id="ped_52" depart="201.19" type="adult">
    <walk from="-176728955#2" to="176728955#2" />
  </person>
  <person id="ped_53" depart="207.22" type="adult">
    <walk from="-176728955#2" to="176728955#2" />
  </person>
  <person id="ped_54" depart="213.49" type="adult">
    <walk from="-176728955#2" to="176728955#2" />
  </person>
  <person id="ped_55" depart="218.76" type="adult">
    <walk from="-176728955#2" to="176728955#2" />
  </person>
  <person id="ped_56" depart="232.47" type="adult">
    <walk from="-176728955#2" to="176728955#2" />
  </person>
  <person id="ped_57" depart="237.78" type="adult">
    <walk from="-176728955#2" to="176728955#2" />
  </person>
  <person id="ped_58" depart="246.49" type="adult">
    <walk from="-176728955#2" to="176728955#2" />
  </person>
  <person id="ped_59" depart="255.55" type="adult">
    <walk from="-176728955#2" to="176728955#2" />
  </person>
  <person id="ped_60" depart="256.44" type="adult">
    <walk from="-176728955#2" to="176728955#2" />
  </person>
  <person id="ped_61" depart="260.84" type="adult">
    <walk from="-176728955#2" to="176728955#2" />
  </person>
  <person id="ped_62" depart="260.90" type="adult">
    <walk from="-176728955#2" to="176728955#2" />
  </person>
  <person id="ped_63" depart="273.06" type="adult">
    <walk from="-176728955#2" to="176728955#2" />
  </person>
  <person id="ped_64" depart="276.18" type="elderly">
    <walk from="-176728955#2" to="176728955#2" />
  </person>
  <person id="ped_65" depart="277.03" type="elderly">
    <walk from="-176728955#2" to="176728955#2" />
  </person>
  <person id="ped_66" depart="281.71" type="adult">
    <walk from="-176728955#2" to="176728955#2" />
  </person>
  <person id="ped_67" depart="282.74" type="adult">
    <walk from="-176728955#2" to="176728955#2" />
  </person>
  <person id="ped_68" depart="286.36" type="adult">
    <walk from="-176728955#2" to="176728955#2" />
  </person>
  <person id="ped_69" depart="287.00" type="adult">
    <walk from="-176728955#2" to="176728955#2" />
  </person>
  <person id="ped_70" depart="288.76" type="adult">
    <walk from="-176728955#2" to="176728955#2" />
  </person>
  <person id="ped_71" depart="288.82" type="adult">
    <walk from="-176728955#2" to="176728955#2" />
  </person>
  <person id="ped_72" depart="291.63" type="adult">
    <walk from="-176728955#2" to="176728955#2" />
  </person>
  <person id="ped_73" depart="293.99" type="adult">
    <walk from="-176728955#2" to="176728955#2" />
  </person>
  <person id="ped_74" depart="294.12" type="adult">
    <walk from="-176728955#2" to="176728955#2" />
  </person>
  <person id="ped_75" depart="296.58" type="adult">
    <walk from="-176728955#2" to="176728955#2" />
  </person>
  <person id="ped_76" depart="309.72" type="adult">
    <walk from="-176728955#2" to="176728955#2" />
  </person>
  <person id="ped_77" depart="310.45" type="adult">
    <walk from="-176728955#2" to="176728955#2" />
  </person>
  <person id="ped_78" depart="310.77" type="adult">
    <walk from="-176728955#2" to="176728955#2" />
  </person>
  <person id="ped_79" depart="315.77" type="adult">
    <walk from="-176728955#2" to="176728955#2" />
  </person>
  <person id="ped_80" depart="324.54" type="adult">
    <walk from="-176728955#2" to="176728955#2" />
  </person>
  <person id="ped_81" depart="328.86" type="adult">
    <walk from="-176728955#2" to="176728955#2" />
  </person>
  <person id="ped_82" depart="353.33" type="adult">
    <walk from="-176728955#2" to="176728955#2" />
  </person>
  <person id="ped_83" depart="359.81" type="adult">
    <walk from="-176728955#2" to="176728955#2" />
  </person>
  <person id="ped_84" depart="362.56" type="adult">
    <walk from="-176728955#2" to="176728955#2" />
  </person>
  <person id="ped_85" depart="373.45" type="adult">
    <walk from="-176728955#2" to="176728955#2" />
  </person>
  <person id="ped_86" depart="374.19" type="adult">
    <walk from="-176728955#2" to="176728955#2" />
  </person>
  <person id="ped_87" depart="385.44" type="adult">
    <walk from="-176728955#2" to="176728955#2" />
  </person>
  <person id="ped_88" depart="388.05" type="adult">
    <walk from="-176728955#2" to="176728955#2" />
  </person>
  <person id="ped_89" depart="390.22" type="adult">
    <walk from="-176728955#2" to="176728955#2" />
  </person>
  <person id="ped_90" depart="393.75" type="adult">
    <walk from="-176728955#2" to="176728955#2" />
  </person>
  <person id="ped_91" depart="395.10" type="elderly">
    <walk from="-176728955#2" to="176728955#2" />
  </person>
  <person id="ped_92" depart="402.62" type="adult">
    <walk from="-176728955#2" to="176728955#2" />
  </person>
  <person id="ped_93" depart="407.46" type="adult">
    <walk from="-176728955#2" to="176728955#2" />
  </person>
  <person id="ped_94" depart="408.50" type="adult">
    <walk from="-176728955#2" to="176728955#2" />
  </person>
  <person id="ped_95" depart="412.41" type="elderly">
    <walk from="-176728955#2" to="176728955#2" />
  </person>
  <person id="ped_96" depart="415.40" type="adult">
    <walk from="-176728955#2" to="176728955#2" />
  </person>
  <person id="ped_97" depart="419.44" type="adult">
    <walk from="-176728955#2" to="176728955#2" />
  </person>
  <person id="ped_98" depart="420.18" type="adult">
    <walk from="-176728955#2" to="176728955#2" />
  </person>
  <person id="ped_99" depart="421.02" type="adult">
    <walk from="-176728955#2" to="176728955#2" />
  </person>
  <person id="ped_100" depart="423.18" type="elderly">
    <walk from="-176728955#2" to="176728955#2" />
  </person>
  <person id="ped_101" depart="435.70" type="elderly">
    <walk from="-176728955#2" to="176728955#2" />
  </person>
  <person id="ped_102" depart="436.27" type="adult">
    <walk from="-176728955#2" to="176728955#2" />
  </person>
  <person id="ped_103" depart="436.92" type="adult">
    <walk from="-176728955#2" to="176728955#2" />
  </person>
  <person id="ped_104" depart="444.13" type="adult">
    <walk from="-176728955#2" to="176728955#2" />
  </person>
  <person id="ped_105" depart="445.56" type="adult">
    <walk from="-176728955#2" to="176728955#2" />
  </person>
  <person id="ped_106" depart="446.46" type="adult">
    <walk from="-176728955#2" to="176728955#2" />
  </person>
  <person id="ped_107" depart="449.24" type="elderly">
    <walk from="-176728955#2" to="176728955#2" />
  </person>
  <person id="ped_108" depart="459.79" type="elderly">
    <walk from="-176728955#2" to="176728955#2" />
  </person>
  <person id="ped_109" depart="462.96" type="elderly">
    <walk from="-176728955#2" to="176728955#2" />
  </person>
  <person id="ped_110" depart="482.22" type="adult">
    <walk from="-176728955#2" to="176728955#2" />
  </person>
  <person id="ped_111" depart="484.51" type="adult">
    <walk from="-176728955#2" to="176728955#2" />
  </person>
  <person id="ped_112" depart="495.93" type="adult">
    <walk from="-176728955#2" to="176728955#2" />
  </person>
  <person id="ped_113" depart="511.61" type="adult">
    <walk from="-176728955#2" to="176728955#2" />
  </person>
  <person id="ped_114" depart="523.07" type="adult">
    <walk from="-176728955#2" to="176728955#2" />
  </person>
  <person id="ped_115" depart="524.17" type="elderly">
    <walk from="-176728955#2" to="176728955#2" />
  </person>
  <person id="ped_116" depart="525.49" type="adult">
    <walk from="-176728955#2" to="176728955#2" />
  </person>
  <person id="ped_117" depart="536.59" type="adult">
    <walk from="-176728955#2" to="176728955#2" />
  </person>
  <person id="ped_118" depart="546.08" type="elderly">
    <walk from="-176728955#2" to="176728955#2" />
  </person>
  <person id="ped_119" depart="552.73" type="adult">
    <walk from="-176728955#2" to="176728955#2" />
  </person>
  <person id="ped_120" depart="552.85" type="elderly">
    <walk from="-176728955#2" to="176728955#2" />
  </person>
  <person id="ped_121" depart="555.27" type="adult">
    <walk from="-176728955#2" to="176728955#2" />
  </person>
  <person id="ped_122" depart="562.56" type="adult">
    <walk from="-176728955#2" to="176728955#2" />
  </person>
  <person id="ped_123" depart="565.46" type="elderly">
    <walk from="-176728955#2" to="176728955#2" />
  </person>
  <person id="ped_124" depart="566.24" type="adult">
    <walk from="-176728955#2" to="176728955#2" />
  </person>
  <person id="ped_125" depart="568.56" type="adult">
    <walk from="-176728955#2" to="176728955#2" />
  </person>
  <person id="ped_126" depart="573.96" type="adult">
    <walk from="-176728955#2" to="176728955#2" />
  </person>
  <person id="ped_127" depart="578.47" type="adult">
    <walk from="-176728955#2" to="176728955#2" />
  </person>
  <person id="ped_128" depart="579.45" type="adult">
    <walk from="-176728955#2" to="176728955#2" />
  </person>
  <person id="ped_129" depart="591.33" type="adult">
    <walk from="-176728955#2" to="176728955#2" />
  </person>
  <person id="ped_130" depart="591.67" type="adult">
    <walk from="-176728955#2" to="176728955#2" />
  </person>
  <person id="ped_131" depart="591.84" type="elderly">
    <walk from="-176728955#2" to="176728955#2" />
  </person>
  <person id="ped_132" depart="595.79" type="adult">
    <walk from="-176728955#2" to="176728955#2" />
  </person>
  <person id="ped_133" depart="597.13" type="adult">
    <walk from="-176728955#2" to="176728955#2" />
  </person>
  <person id="ped_134" depart="597.50" type="adult">
    <walk from="-176728955#2" to="176728955#2" />
  </person>
  <person id="ped_135" depart="604.12" type="adult">
    <walk from="-176728955#2" to="176728955#2" />
  </person>
  <person id="ped_136" depart="608.00" type="adult">
    <walk from="-176728955#2" to="176728955#2" />
  </person>
  <person id="ped_137" depart="616.25" type="adult">
    <walk from="-176728955#2" to="176728955#2" />
  </person>
  <person id="ped_138" depart="623.26" type="adult">
    <walk from="-176728955#2" to="176728955#2" />
  </person>
  <person id="ped_139" depart="624.92" type="elderly">
    <walk from="-176728955#2" to="176728955#2" />
  </person>
  <person id="ped_140" depart="643.50" type="adult">
    <walk from="-176728955#2" to="176728955#2" />
  </person>
  <person id="ped_141" depart="651.26" type="adult">
    <walk from="-176728955#2" to="176728955#2" />
  </person>
  <person id="ped_142" depart="651.84" type="elderly">
    <walk from="-176728955#2" to="176728955#2" />
  </person>
  <person id="ped_143" depart="653.25" type="adult">
    <walk from="-176728955#2" to="176728955#2" />
  </person>
  <person id="ped_144" depart="663.53" type="elderly">
    <walk from="-176728955#2" to="176728955#2" />
  </person>
  <person id="ped_145" depart="663.71" type="adult">
    <walk from="-176728955#2" to="176728955#2" />
  </person>
  <person id="ped_146" depart="665.37" type="elderly">
    <walk from="-176728955#2" to="176728955#2" />
  </person>
  <person id="ped_147" depart="677.05" type="elderly">
    <walk from="-176728955#2" to="176728955#2" />
  </person>
  <person id="ped_148" depart="677.69" type="adult">
    <walk from="-176728955#2" to="176728955#2" />
  </person>
  <person id="ped_149" depart="680.46" type="adult">
    <walk from="-176728955#2" to="176728955#2" />
  </person>
  <person id="ped_150" depart="682.02" type="adult">
    <walk from="-176728955#2" to="176728955#2" />
  </person>
  <person id="ped_151" depart="683.42" type="adult">
    <walk from="-176728955#2" to="176728955#2" />
  </person>
  <person id="ped_152" depart="690.36" type="adult">
    <walk from="-176728955#2" to="176728955#2" />
  </person>
  <person id="ped_153" depart="691.85" type="elderly">
    <walk from="-176728955#2" to="176728955#2" />
  </person>
  <person id="ped_154" depart="698.13" type="adult">
    <walk from="-176728955#2" to="176728955#2" />
  </person>
  <person id="ped_155" depart="700.92" type="adult">
    <walk from="-176728955#2" to="176728955#2" />
  </person>
  <person id="ped_156" depart="705.88" type="elderly">
    <walk from="-176728955#2" to="176728955#2" />
  </person>
  <person id="ped_157" depart="708.32" type="adult">
    <walk from="-176728955#2" to="176728955#2" />
  </person>
  <person id="ped_158" depart="708.55" type="adult">
    <walk from="-176728955#2" to="176728955#2" />
  </person>
  <person id="ped_159" depart="709.48" type="adult">
    <walk from="-176728955#2" to="176728955#2" />
  </person>
  <person id="ped_160" depart="711.20" type="adult">
    <walk from="-176728955#2" to="176728955#2" />
  </person>
  <person id="ped_161" depart="712.51" type="elderly">
    <walk from="-176728955#2" to="176728955#2" />
  </person>
  <person id="ped_162" depart="713.29" type="adult">
    <walk from="-176728955#2" to="176728955#2" />
  </person>
  <person id="ped_163" depart="715.07" type="adult">
    <walk from="-176728955#2" to="176728955#2" />
  </person>
  <person id="ped_164" depart="719.81" type="elderly">
    <walk from="-176728955#2" to="176728955#2" />
  </person>
  <person id="ped_165" depart="721.98" type="adult">
    <walk from="-176728955#2" to="176728955#2" />
  </person>
  <person id="ped_166" depart="726.77" type="adult">
    <walk from="-176728955#2" to="176728955#2" />
  </person>
  <person id="ped_167" depart="732.14" type="adult">
    <walk from="-176728955#2" to="176728955#2" />
  </person>
  <person id="ped_168" depart="744.54" type="elderly">
    <walk from="-176728955#2" to="176728955#2" />
  </person>
  <person id="ped_169" depart="745.72" type="adult">
    <walk from="-176728955#2" to="176728955#2" />
  </person>
  <person id="ped_170" depart="757.52" type="adult">
    <walk from="-176728955#2" to="176728955#2" />
  </person>
  <person id="ped_171" depart="761.37" type="adult">
    <walk from="-176728955#2" to="176728955#2" />
  </person>
  <person id="ped_172" depart="764.78" type="adult">
    <walk from="-176728955#2" to="176728955#2" />
  </person>
  <person id="ped_173" depart="765.43" type="adult">
    <walk from="-176728955#2" to="176728955#2" />
  </person>
  <person id="ped_174" depart="766.07" type="adult">
    <walk from="-176728955#2" to="176728955#2" />
  </person>
  <person id="ped_175" depart="771.86" type="adult">
    <walk from="-176728955#2" to="176728955#2" />
  </person>
  <person id="ped_176" depart="772.32" type="adult">
    <walk from="-176728955#2" to="176728955#2" />
  </person>
  <person id="ped_177" depart="778.57" type="adult">
    <walk from="-176728955#2" to="176728955#2" />
  </person>
  <person id="ped_178" depart="781.85" type="adult">
    <walk from="-176728955#2" to="176728955#2" />
  </person>
  <person id="ped_179" depart="786.80" type="adult">
    <walk from="-176728955#2" to="176728955#2" />
  </person>
  <person id="ped_180" depart="787.40" type="elderly">
    <walk from="-176728955#2" to="176728955#2" />
  </person>
  <person id="ped_181" depart="791.41" type="adult">
    <walk from="-176728955#2" to="176728955#2" />
  </person>
  <person id="ped_182" depart="792.34" type="elderly">
    <walk from="-176728955#2" to="176728955#2" />
  </person>
  <person id="ped_183" depart="795.53" type="adult">
    <walk from="-176728955#2" to="176728955#2" />
  </person>
  <person id="ped_184" depart="796.62" type="adult">
    <walk from="-176728955#2" to="176728955#2" />
  </person>
  <person id="ped_185" depart="798.12" type="adult">
    <walk from="-176728955#2" to="176728955#2" />
  </person>
  <person id="ped_186" depart="799.24" type="adult">
    <walk from="-176728955#2" to="176728955#2" />
  </person>
  <person id="ped_187" depart="800.54" type="adult">
    <walk from="-176728955#2" to="176728955#2" />
  </person>
  <person id="ped_188" depart="804.87" type="adult">
    <walk from="-176728955#2" to="176728955#2" />
  </person>
  <person id="ped_189" depart="807.53" type="elderly">
    <walk from="-176728955#2" to="176728955#2" />
  </person>
  <person id="ped_190" depart="808.60" type="adult">
    <walk from="-176728955#2" to="176728955#2" />
  </person>
  <person id="ped_191" depart="821.69" type="adult">
    <walk from="-176728955#2" to="176728955#2" />
  </person>
  <person id="ped_192" depart="821.90" type="elderly">
    <walk from="-176728955#2" to="176728955#2" />
  </person>
  <person id="ped_193" depart="826.45" type="adult">
    <walk from="-176728955#2" to="176728955#2" />
  </person>
  <person id="ped_194" depart="827.55" type="adult">
    <walk from="-176728955#2" to="176728955#2" />
  </person>
  <person id="ped_195" depart="837.62" type="elderly">
    <walk from="-176728955#2" to="176728955#2" />
  </person>
  <person id="ped_196" depart="838.06" type="adult">
    <walk from="-176728955#2" to="176728955#2" />
  </person>
  <person id="ped_197" depart="841.55" type="adult">
    <walk from="-176728955#2" to="176728955#2" />
  </person>
  <person id="ped_198" depart="842.58" type="adult">
    <walk from="-176728955#2" to="176728955#2" />
  </person>
  <person id="ped_199" depart="843.82" type="elderly">
    <walk from="-176728955#2" to="176728955#2" />
  </person>
  <person id="ped_200" depart="847.37" type="elderly">
    <walk from="-176728955#2" to="176728955#2" />
  </person>
  <person id="ped_201" depart="847.99" type="adult">
    <walk from="-176728955#2" to="176728955#2" />
  </person>
  <person id="ped_202" depart="848.62" type="adult">
    <walk from="-176728955#2" to="176728955#2" />
  </person>
  <person id="ped_203" depart="850.87" type="elderly">
    <walk from="-176728955#2" to="176728955#2" />
  </person>
  <person id="ped_204" depart="852.93" type="adult">
    <walk from="-176728955#2" to="176728955#2" />
  </person>
  <person id="ped_205" depart="855.23" type="adult">
    <walk from="-176728955#2" to="176728955#2" />
  </person>
  <person id="ped_206" depart="862.88" type="adult">
    <walk from="-176728955#2" to="176728955#2" />
  </person>
  <person id="ped_207" depart="863.33" type="elderly">
    <walk from="-176728955#2" to="176728955#2" />
  </person>
  <person id="ped_208" depart="865.56" type="adult">
    <walk from="-176728955#2" to="176728955#2" />
  </person>
  <person id="ped_209" depart="866.15" type="adult">
    <walk from="-176728955#2" to="176728955#2" />
  </person>
  <person id="ped_210" depart="868.97" type="elderly">
    <walk from="-176728955#2" to="176728955#2" />
  </person>
  <person id="ped_211" depart="872.24" type="adult">
    <walk from="-176728955#2" to="176728955#2" />
  </person>
  <person id="ped_212" depart="876.35" type="adult">
    <walk from="-176728955#2" to="176728955#2" />
  </person>
  <person id="ped_213" depart="878.88" type="adult">
    <walk from="-176728955#2" to="176728955#2" />
  </person>
  <person id="ped_214" depart="879.81" type="adult">
    <walk from="-176728955#2" to="176728955#2" />
  </person>
  <person id="ped_215" depart="881.96" type="adult">
    <walk from="-176728955#2" to="176728955#2" />
  </person>
  <person id="ped_216" depart="885.52" type="adult">
    <walk from="-176728955#2" to="176728955#2" />
  </person>
  <person id="ped_217" depart="888.60" type="adult">
    <walk from="-176728955#2" to="176728955#2" />
  </person>
  <person id="ped_218" depart="891.95" type="adult">
    <walk from="-176728955#2" to="176728955#2" />
  </person>
  <person id="ped_219" depart="900.76" type="elderly">
    <walk from="-176728955#2" to="176728955#2" />
  </person>
  <person id="ped_220" depart="909.71" type="adult">
    <walk from="-176728955#2" to="176728955#2" />
  </person>
  <person id="ped_221" depart="910.60" type="adult">
    <walk from="-176728955#2" to="176728955#2" />
  </person>
  <person id="ped_222" depart="911.92" type="adult">
    <walk from="-176728955#2" to="176728955#2" />
  </person>
  <person id="ped_223" depart="913.43" type="elderly">
    <walk from="-176728955#2" to="176728955#2" />
  </person>
  <person id="ped_224" depart="923.22" type="elderly">
    <walk from="-176728955#2" to="176728955#2" />
  </person>
  <person id="ped_225" depart="931.34" type="adult">
    <walk from="-176728955#2" to="176728955#2" />
  </person>
  <person id="ped_226" depart="932.50" type="adult">
    <walk from="-176728955#2" to="176728955#2" />
  </person>
  <person id="ped_227" depart="933.25" type="adult">
    <walk from="-176728955#2" to="176728955#2" />
  </person>
  <person id="ped_228" depart="936.95" type="elderly">
    <walk from="-176728955#2" to="176728955#2" />
  </person>
  <person id="ped_229" depart="943.26" type="adult">
    <walk from="-176728955#2" to="176728955#2" />
  </person>
  <person id="ped_230" depart="952.85" type="adult">
    <walk from="-176728955#2" to="176728955#2" />
  </person>
  <person id="ped_231" depart="952.91" type="adult">
    <walk from="-176728955#2" to="176728955#2" />
  </person>
  <person id="ped_232" depart="955.55" type="adult">
    <walk from="-176728955#2" to="176728955#2" />
  </person>
  <person id="ped_233" depart="956.57" type="adult">
    <walk from="-176728955#2" to="176728955#2" />
  </person>
  <person id="ped_234" depart="961.63" type="adult">
    <walk from="-176728955#2" to="176728955#2" />
  </person>
  <person id="ped_235" depart="965.02" type="adult">
    <walk from="-176728955#2" to="176728955#2" />
  </person>
  <person id="ped_236" depart="965.16" type="elderly">
    <walk from="-176728955#2" to="176728955#2" />
  </person>
  <person id="ped_237" depart="967.84" type="elderly">
    <walk from="-176728955#2" to="176728955#2" />
  </person>
  <person id="ped_238" depart="969.84" type="adult">
    <walk from="-176728955#2" to="176728955#2" />
  </person>
  <person id="ped_239" depart="979.62" type="adult">
    <walk from="-176728955#2" to="176728955#2" />
  </person>
  <person id="ped_240" depart="980.65" type="adult">
    <walk from="-176728955#2" to="176728955#2" />
  </person>
  <person id="ped_241" depart="980.70" type="adult">
    <walk from="-176728955#2" to="176728955#2" />
  </person>
  <person id="ped_242" depart="982.08" type="elderly">
    <walk from="-176728955#2" to="176728955#2" />
  </person>
  <person id="ped_243" depart="985.88" type="adult">
    <walk from="-176728955#2" to="176728955#2" />
  </person>
  <person id="ped_244" depart="986.97" type="adult">
    <walk from="-176728955#2" to="176728955#2" />
  </person>
  <person id="ped_245" depart="993.04" type="adult">
    <walk from="-176728955#2" to="176728955#2" />
  </person>
  <person id="ped_246" depart="994.98" type="elderly">
    <walk from="-176728955#2" to="176728955#2" />
  </person>
  <person id="ped_247" depart="995.59" type="adult">
    <walk from="-176728955#2" to="176728955#2" />
  </person>
  <person id="ped_248" depart="997.99" type="adult">
    <walk from="-176728955#2" to="176728955#2" />
  </person>
  <person id="ped_249" depart="998.33" type="adult">
    <walk from="-176728955#2" to="176728955#2" />
  </person>
  <person id="ped_250" depart="1001.37" type="adult">
    <walk from="-176728955#2" to="176728955#2" />
  </person>
  <person id="ped_251" depart="1003.18" type="adult">
    <walk from="-176728955#2" to="176728955#2" />
  </person>
  <person id="ped_252" depart="1003.25" type="adult">
    <walk from="-176728955#2" to="176728955#2" />
  </person>
  <person id="ped_253" depart="1003.56" type="adult">
    <walk from="-176728955#2" to="176728955#2" />
  </person>
  <person id="ped_254" depart="1007.76" type="adult">
    <walk from="-176728955#2" to="176728955#2" />
  </person>
  <person id="ped_255" depart="1008.35" type="adult">
    <walk from="-176728955#2" to="176728955#2" />
  </person>
  <person id="ped_256" depart="1024.04" type="adult">
    <walk from="-176728955#2" to="176728955#2" />
  </person>
  <person id="ped_257" depart="1025.90" type="adult">
    <walk from="-176728955#2" to="176728955#2" />
  </person>
  <person id="ped_258" depart="1026.66" type="adult">