<?xml version="1.0" encoding="UTF-8"?>

<!-- generated on 2026-04-17 14:37:04.640645 by Eclipse SUMO randomTrips.py v1.26.0
<configuration>
    <net-file value="/Users/junlee/Desktop/2026-1/js/result/veh_sensitivity_short_cw3_20260417_143049/peak_x1p5_cw3_seed3_20min/sumo_nets/cw_71666/network.net.xml"/>
    <output-trip-file value="/Users/junlee/Desktop/2026-1/js/result/veh_sensitivity_short_cw3_20260417_143049/peak_x1p5_cw3_seed3_20min/sumo_nets/cw_71666/routes_seed44.trips.xml"/>
    <route-file value="/Users/junlee/Desktop/2026-1/js/result/veh_sensitivity_short_cw3_20260417_143049/peak_x1p5_cw3_seed3_20min/sumo_nets/cw_71666/routes_seed44.rou.xml"/>
    <vehicle-class value="passenger"/>
    <seed value="44"/>
    <end value="1200.0"/>
    <period value="1.7218767440302591"/>
</configuration>
-->

<routes xmlns:xsi="http://www.w3.org/2001/XMLSchema-instance" xsi:noNamespaceSchemaLocation="http://sumo.dlr.de/xsd/routes_file.xsd">
    <vType id="passenger" vClass="passenger"/>
    <trip id="0" depart="0.00" from="-601902513#1" to="117914348#3" type="passenger"/>
    <trip id="1" depart="1.72" from="420331825#2" to="-381447836#3" type="passenger"/>
    <trip id="2" depart="3.44" from="-381452122#3" to="-117914343#2" type="passenger"/>
    <trip id="3" depart="5.17" from="-244215399" to="-1126339777#1" type="passenger"/>
    <trip id="4" depart="6.89" from="-381447833#1" to="117914343#2" type="passenger"/>
    <trip id="5" depart="8.61" from="913009313#1" to="381447836#0" type="passenger"/>
    <trip id="6" depart="10.33" from="-420331830" to="-601902513#1" type="passenger"/>
    <trip id="7" depart="12.05" from="381447836#3" to="-420319848#0" type="passenger"/>
    <trip id="8" depart="13.78" from="-117914352#0" to="420319848#1" type="passenger"/>
    <trip id="9" depart="15.50" from="381447827" to="-381447817#1" type="passenger"/>
    <trip id="10" depart="17.22" from="-117914351#2" to="-218773868#3" type="passenger"/>
    <trip id="11" depart="18.94" from="913009312#5" to="-381447817#1" type="passenger"/>
    <trip id="12" depart="20.66" from="381447831" to="913009312#6" type="passenger"/>
    <trip id="13" depart="22.38" from="-117914348#0" to="-420331831" type="passenger"/>
    <trip id="14" depart="24.11" from="-381447836#3" to="-381452175#1" type="passenger"/>
    <trip id="15" depart="25.83" from="-381452167" to="-117914348#2" type="passenger"/>
    <trip id="16" depart="27.55" from="381447835#3" to="420317544#1" type="passenger"/>
    <trip id="17" depart="29.27" from="-913009312#3" to="-117914348#0" type="passenger"/>
    <trip id="18" depart="30.99" from="381452106" to="381452108#1" type="passenger"/>
    <trip id="19" depart="32.72" from="381447835#0" to="-420319848#0" type="passenger"/>
    <trip id="20" depart="34.44" from="420319847" to="381447829#0" type="passenger"/>
    <trip id="21" depart="36.16" from="244215552#1" to="117914348#3" type="passenger"/>
    <trip id="22" depart="37.88" from="-381452132" to="-913009312#6" type="passenger"/>
    <trip id="23" depart="39.60" from="420317540" to="381447835#3" type="passenger"/>
    <trip id="24" depart="41.33" from="-420331825#1" to="420317544#1" type="passenger"/>
    <trip id="25" depart="43.05" from="420319848#0" to="-117914348#1" type="passenger"/>
    <trip id="26" depart="44.77" from="-381447833#1" to="-381452132" type="passenger"/>
    <trip id="27" depart="46.49" from="-117914343#0" to="381452132" type="passenger"/>
    <trip id="28" depart="48.21" from="381447834#0" to="117914351#0" type="passenger"/>
    <trip id="29" depart="49.93" from="913009315" to="-420331825#2" type="passenger"/>
    <trip id="30" depart="51.66" from="-381452104#1" to="-381447817#1" type="passenger"/>
    <trip id="31" depart="53.38" from="-420319848#2" to="420319848#0" type="passenger"/>
    <trip id="32" depart="55.10" from="381447818" to="-117914351#0" type="passenger"/>
    <trip id="33" depart="56.82" from="-913009312#2" to="-117914348#2" type="passenger"/>
    <trip id="34" depart="58.54" from="381447829#0" to="-381447827" type="passenger"/>
    <trip id="35" depart="60.27" from="-381447836#2" to="381447833#1" type="passenger"/>
    <trip id="36" depart="61.99" from="420319848#0" to="381447817#1" type="passenger"/>
    <trip id="37" depart="63.71" from="-420317543#1" to="381447833#1" type="passenger"/>
    <trip id="38" depart="65.43" from="-381452175#1" to="-1126339777#1" type="passenger"/>
    <trip id="39" depart="67.15" from="-381452175#1" to="381447835#3" type="passenger"/>
    <trip id="40" depart="68.88" from="381447831" to="-381452106" type="passenger"/>
    <trip id="41" depart="70.60" from="420319848#0" to="420319840#1" type="passenger"/>
    <trip id="42" depart="72.32" from="-381452175#2" to="913009312#5" type="passenger"/>
    <trip id="43" depart="74.04" from="-381452174#1" to="-117914351#2" type="passenger"/>
    <trip id="44" depart="75.76" from="117914343#2" to="420331825#2" type="passenger"/>
    <trip id="45" depart="77.48" from="381447817#1" to="117914351#0" type="passenger"/>
    <trip id="46" depart="79.21" from="1126339777#1" to="-420317543#0" type="passenger"/>
    <trip id="47" depart="80.93" from="-420317544#0" to="-601902513#0" type="passenger"/>
    <trip id="48" depart="82.65" from="117914352#0" to="913009312#2" type="passenger"/>
    <trip id="49" depart="84.37" from="-117914352#0" to="-381452175#0" type="passenger"/>
    <trip id="50" depart="86.09" from="913009312#3" to="381447834#1" type="passenger"/>
    <trip id="51" depart="87.82" from="-117914352#0" to="-913009312#4" type="passenger"/>
    <trip id="52" depart="89.54" from="381447834#0" to="520307306" type="passenger"/>
    <trip id="53" depart="91.26" from="-218773868#0" to="420335669" type="passenger"/>
    <trip id="54" depart="92.98" from="381452175#0" to="-420317543#0" type="passenger"/>
    <trip id="55" depart="94.70" from="117914351#0" to="420319840#0" type="passenger"/>
    <trip id="56" depart="96.43" from="-381452160" to="381447836#2" type="passenger"/>
    <trip id="57" depart="98.15" from="218773868#1" to="-218773868#0" type="passenger"/>
    <trip id="58" depart="99.87" from="-381452175#1" to="-913009311" type="passenger"/>
    <trip id="59" depart="101.59" from="-381447829#0" to="913009312#2" type="passenger"/>
    <trip id="60" depart="103.31" from="-381452174#0" to="-381452167" type="passenger"/>
    <trip id="61" depart="105.03" from="381447817#0" to="117914348#1" type="passenger"/>
    <trip id="62" depart="106.76" from="-420319840#1" to="-420319848#0" type="passenger"/>
    <trip id="63" depart="108.48" from="117914343#0" to="520307306" type="passenger"/>
    <trip id="64" depart="110.20" from="-218773868#0" to="520307306" type="passenger"/>
    <trip id="65" depart="111.92" from="913009312#2" to="381447835#3" type="passenger"/>
    <trip id="66" depart="113.64" from="420317543#1" to="-420331830" type="passenger"/>
    <trip id="67" depart="115.37" from="913009312#6" to="381452122#3" type="passenger"/>
    <trip id="68" depart="117.09" from="381447836#2" to="-913009312#5" type="passenger"/>
    <trip id="69" depart="118.81" from="-381452108#1" to="381447836#0" type="passenger"/>
    <trip id="70" depart="120.53" from="381452122#3" to="-1126339777#0" type="passenger"/>
    <trip id="71" depart="122.25" from="-420319840#0" to="117914348#2" type="passenger"/>
    <trip id="72" depart="123.98" from="-381452108#0" to="-381447829#0" type="passenger"/>
    <trip id="73" depart="125.70" from="-381447836#3" to="-117914343#0" type="passenger"/>
    <trip id="74" depart="127.42" from="-381447817#0" to="-520307306" type="passenger"/>
    <trip id="75" depart="129.14" from="117914343#1" to="381447833#0" type="passenger"/>
    <trip id="76" depart="130.86" from="-420317544#1" to="-381447829#0" type="passenger"/>
    <trip id="77" depart="132.58" from="601902513#1" to="381447829#0" type="passenger"/>
    <trip id="78" depart="134.31" from="381447836#0" to="381447836#0" type="passenger"/>
    <trip id="79" depart="136.03" from="-420319840#1" to="218773868#4" type="passenger"/>
    <trip id="80" depart="137.75" from="-420319840#1" to="381447834#0" type="passenger"/>
    <trip id="81" depart="139.47" from="420319840#1" to="-117914343#0" type="passenger"/>
    <trip id="82" depart="141.19" from="420317540" to="-381447818" type="passenger"/>
    <trip id="83" depart="142.92" from="-117914343#0" to="-218773868#0" type="passenger"/>
    <trip id="84" depart="144.64" from="218773868#1" to="420331825#1" type="passenger"/>
    <trip id="85" depart="146.36" from="913009311" to="-381447834#0" type="passenger"/>
    <trip id="86" depart="148.08" from="-913009312#2" to="913009312#2" type="passenger"/>
    <trip id="87" depart="149.80" from="420331827" to="420319840#0" type="passenger"/>
    <trip id="88" depart="151.53" from="-381452167" to="-420317540" type="passenger"/>
    <trip id="89" depart="153.25" from="-381447833#0" to="-381452175#1" type="passenger"/>
    <trip id="90" depart="154.97" from="-601902513#0" to="381452175#2" type="passenger"/>
    <trip id="91" depart="156.69" from="381447835#1" to="-381447836#2" type="passenger"/>
    <trip id="92" depart="158.41" from="-381447836#2" to="-913009312#6" type="passenger"/>
    <trip id="93" depart="160.13" from="420331830" to="-913009313#1" type="passenger"/>
    <trip id="94" depart="161.86" from="381452175#2" to="381447835#3" type="passenger"/>
    <trip id="95" depart="163.58" from="420331825#4" to="1126339777#1" type="passenger"/>
    <trip id="96" depart="165.30" from="-420331830" to="-913009312#7" type="passenger"/>
    <trip id="97" depart="167.02" from="420317543#0" to="-420317543#0" type="passenger"/>
    <trip id="98" depart="168.74" from="-381452104#0" to="420319848#0" type="passenger"/>
    <trip id="99" depart="170.47" from="1126339777#0" to="381447833#0" type="passenger"/>
    <trip id="100" depart="172.19" from="-381447836#0" to="-117914348#1" type="passenger"/>
    <trip id="101" depart="173.91" from="-381452122#3" to="-913009312#2" type="passenger"/>
    <trip id="102" depart="175.63" from="-117914348#0" to="-420317540" type="passenger"/>
    <trip id="103" depart="177.35" from="913009312#3" to="-913009312#4" type="passenger"/>
    <trip id="104" depart="179.08" from="-1126339777#0" to="420317543#0" type="passenger"/>
    <trip id="105" depart="180.80" from="-420317544#0" to="-381447836#3" type="passenger"/>
    <trip id="106" depart="182.52" from="381447833#0" to="381447835#0" type="passenger"/>
    <trip id="107" depart="184.24" from="-420319848#0" to="381452104#0" type="passenger"/>
    <trip id="108" depart="185.96" from="420331825#4" to="-420331825#0" type="passenger"/>
    <trip id="109" depart="187.68" from="117914343#0" to="-1126339777#0" type="passenger"/>
    <trip id="110" depart="189.41" from="244215552#1" to="-420317544#0" type="passenger"/>
    <trip id="111" depart="191.13" from="381447835#0" to="381452160" type="passenger"/>
    <trip id="112" depart="192.85" from="-420319848#2" to="381447835#0" type="passenger"/>
    <trip id="113" depart="194.57" from="913009312#3" to="-381447836#2" type="passenger"/>
    <trip id="114" depart="196.29" from="420317543#0" to="-913009315" type="passenger"/>
    <trip id="115" depart="198.02" from="913009312#3" to="-218773868#0" type="passenger"/>
    <trip id="116" depart="199.74" from="-420331831" to="-381447836#0" type="passenger"/>
    <trip id="117" depart="201.46" from="-381452174#1" to="420331830" type="passenger"/>
    <trip id="118" depart="203.18" from="117914348#2" to="-420331825#3" type="passenger"/>
    <trip id="119" depart="204.90" from="913009312#6" to="-117914348#2" type="passenger"/>
    <trip id="120" depart="206.63" from="-117914343#0" to="381452167" type="passenger"/>
    <trip id="121" depart="208.35" from="117914352#1" to="420319840#1" type="passenger"/>
    <trip id="122" depart="210.07" from="117914343#0" to="913009312#2" type="passenger"/>
    <trip id="123" depart="211.79" from="-420319848#1" to="-381452167" type="passenger"/>
    <trip id="124" depart="213.51" from="420331827" to="117914348#2" type="passenger"/>
    <trip id="125" depart="215.23" from="-117914343#2" to="-1126339777#1" type="passenger"/>
    <trip id="126" depart="216.96" from="-117914343#0" to="381452108#0" type="passenger"/>
    <trip id="127" depart="218.68" from="381447833#1" to="-381447818" type="passenger"/>
    <trip id="128" depart="220.40" from="420317543#0" to="381452174#1" type="passenger"/>
    <trip id="129" depart="222.12" from="381447831" to="218773868#2" type="passenger"/>
    <trip id="130" depart="223.84" from="-913009312#2" to="381447836#0" type="passenger"/>
    <trip id="131" depart="225.57" from="-420335669" to="601902513#1" type="passenger"/>
    <trip id="132" depart="227.29" from="244215552#1" to="381447835#1" type="passenger"/>
    <trip id="133" depart="229.01" from="913009311" to="913009312#8" type="passenger"/>
    <trip id="134" depart="230.73" from="117914351#0" to="-381447818" type="passenger"/>
    <trip id="135" depart="232.45" from="117914348#1" to="601902513#0" type="passenger"/>
    <trip id="136" depart="234.18" from="-381452104#2" to="-381452175#0" type="passenger"/>
    <trip id="137" depart="235.90" from="-381452175#1" to="-381452172" type="passenger"/>
    <trip id="138" depart="237.62" from="420319840#0" to="117914348#2" type="passenger"/>
    <trip id="139" depart="239.34" from="-218773868#0" to="117914343#2" type="passenger"/>
    <trip id="140" depart="241.06" from="381447836#3" to="-117914343#2" type="passenger"/>
    <trip id="141" depart="242.78" from="-381452104#0" to="-117914343#0" type="passenger"/>
    <trip id="142" depart="244.51" from="381447836#3" to="-601902513#0" type="passenger"/>
    <trip id="143" depart="246.23" from="-117914343#0" to="-381452174#1" type="passenger"/>
    <trip id="144" depart="247.95" from="-381452104#0" to="117914352#1" type="passenger"/>
    <trip id="145" depart="249.67" from="-913009312#1" to="-913009312#1" type="passenger"/>
    <trip id="146" depart="251.39" from="-420319848#1" to="-117914348#0" type="passenger"/>
    <trip id="147" depart="253.12" from="-420319848#0" to="381447829#0" type="passenger"/>
    <trip id="148" depart="254.84" from="117914351#0" to="218773868#3" type="passenger"/>
    <trip id="149" depart="256.56" from="-381447834#0" to="-117914348#1" type="passenger"/>
    <trip id="150" depart="258.28" from="381452174#0" to="381452104#0" type="passenger"/>
    <trip id="151" depart="260.00" from="381447835#1" to="913009312#5" type="passenger"/>
    <trip id="152" depart="261.73" from="-420317544#1" to="381452108#0" type="passenger"/>
    <trip id="153" depart="263.45" from="-420317543#0" to="244215399" type="passenger"/>
    <trip id="154" depart="265.17" from="520307306" to="-913009312#6" type="passenger"/>
    <trip id="155" depart="266.89" from="381447827" to="913009312#9" type="passenger"/>
    <trip id="156" depart="268.61" from="1126339777#1" to="-381452174#0" type="passenger"/>
    <trip id="157" depart="270.33" from="913009312#5" to="381447835#1" type="passenger"/>
    <trip id="158" depart="272.06" from="-420319848#0" to="-420317540" type="passenger"/>
    <trip id="159" depart="273.78" from="-117914343#1" to="-218773868#2" type="passenger"/>
    <trip id="160" depart="275.50" from="913009312#8" to="117914352#0" type="passenger"/>
    <trip id="161" depart="277.22" from="381452175#1" to="-381452174#0" type="passenger"/>
    <trip id="162" depart="278.94" from="420319848#0" to="381447836#3" type="passenger"/>
    <trip id="163" depart="280.67" from="420331825#3" to="1126339777#0" type="passenger"/>
    <trip id="164" depart="282.39" from="601902513#1" to="117914352#1" type="passenger"/>
    <trip id="165" depart="284.11" from="-381447829#0" to="520307306" type="passenger"/>
    <trip id="166" depart="285.83" from="-420317544#0" to="601902513#1" type="passenger"/>
    <trip id="167" depart="287.55" from="117914352#0" to="-601902513#0" type="passenger"/>
    <trip id="168" depart="289.28" from="117914348#0" to="-420331827" type="passenger"/>
    <trip id="169" depart="291.00" from="-117914352#0" to="-117914348#1" type="passenger"/>
    <trip id="170" depart="292.72" from="-218773868#0" to="420335669" type="passenger"/>
    <trip id="171" depart="294.44" from="-420331825#1" to="-117914343#1" type="passenger"/>
    <trip id="172" depart="296.16" from="381447833#0" to="601902513#0" type="passenger"/>
    <trip id="173" depart="297.88" from="-420331825#2" to="913009312#4" type="passenger"/>
    <trip id="174" depart="299.61" from="-1126339777#1" to="-381447834#0" type="passenger"/>
    <trip id="175" depart="301.33" from="1126339777#1" to="381447833#1" type="passenger"/>
    <trip id="176" depart="303.05" from="117914352#0" to="-1126339777#0" type="passenger"/>
    <trip id="177" depart="304.77" from="-420335669" to="381447833#0" type="passenger"/>
    <trip id="178" depart="306.49" from="-381452174#1" to="-381452104#1" type="passenger"/>
    <trip id="179" depart="308.22" from="381447833#1" to="-913009312#7" type="passenger"/>
    <trip id="180" depart="309.94" from="913009313#1" to="913009312#3" type="passenger"/>
    <trip id="181" depart="311.66" from="-420317544#1" to="-117914343#2" type="passenger"/>
    <trip id="182" depart="313.38" from="-381447836#2" to="-913009312#3" type="passenger"/>
    <trip id="183" depart="315.10" from="-913009312#1" to="-913009312#3" type="passenger"/>
    <trip id="184" depart="316.83" from="-218773868#1" to="-420319840#0" type="passenger"/>
    <trip id="185" depart="318.55" from="-601902513#1" to="381452132" type="passenger"/>
    <trip id="186" depart="320.27" from="-244215399" to="381447829#0" type="passenger"/>
    <trip id="187" depart="321.99" from="-420331830" to="381452174#1" type="passenger"/>
    <trip id="188" depart="323.71" from="381447836#0" to="-381452104#1" type="passenger"/>
    <trip id="189" depart="325.43" from="381452104#1" to="-420331825#4" type="passenger"/>
    <trip id="190" depart="327.16" from="420319847" to="-117914343#1" type="passenger"/>
    <trip id="191" depart="328.88" from="-420319840#0" to="117914348#0" type="passenger"/>
    <trip id="192" depart="330.60" from="-420317543#1" to="-420331831" type="passenger"/>
    <trip id="193" depart="332.32" from="218773868#3" to="-381452174#0" type="passenger"/>
    <trip id="194" depart="334.04" from="381447836#2" to="913009312#4" type="passenger"/>
    <trip id="195" depart="335.77" from="-218773868#3" to="420331825#4" type="passenger"/>
    <trip id="196" depart="337.49" from="-381447836#0" to="-913009312#6" type="passenger"/>
    <trip id="197" depart="339.21" from="-244215399" to="913009311" type="passenger"/>
    <trip id="198" depart="340.93" from="-420319840#0" to="117914343#2" type="passenger"/>
    <trip id="199" depart="342.65" from="913009312#7" to="-381447833#1" type="passenger"/>
    <trip id="200" depart="344.38" from="-117914352#0" to="381447836#0" type="passenger"/>
    <trip id="201" depart="346.10" from="-117914348#1" to="-381447829#0" type="passenger"/>
    <trip id="202" depart="347.82" from="-381452174#0" to="-1126339777#1" type="passenger"/>
    <trip id="203" depart="349.54" from="-420331825#1" to="-117914351#0" type="passenger"/>
    <trip id="204" depart="351.26" from="913009312#1" to="117914343#2" type="passenger"/>
    <trip id="205" depart="352.98" from="-117914343#2" to="381452132" type="passenger"/>
    <trip id="206" depart="354.71" from="-381452160" to="420331827" type="passenger"/>
    <trip id="207" depart="356.43" from="-117914348#0" to="-381447827" type="passenger"/>
    <trip id="208" depart="358.15" from="-420331827" to="420319840#0" type="passenger"/>
    <trip id="209" depart="359.87" from="913009312#1" to="913009312#5" type="passenger"/>
    <trip id="210" depart="361.59" from="-381452104#2" to="-420331827" type="passenger"/>
    <trip id="211" depart="363.32" from="420331825#0" to="420317543#1" type="passenger"/>
    <trip id="212" depart="365.04" from="913009312#2" to="-218773868#1" type="passenger"/>
    <trip id="213" depart="366.76" from="-117914348#0" to="-601902513#0" type="passenger"/>
    <trip id="214" depart="368.48" from="420319848#1" to="381447835#3" type="passenger"/>
    <trip id="215" depart="370.20" from="-913009312#4" to="420319840#1" type="passenger"/>
    <trip id="216" depart="371.93" from="-420317543#0" to="381452132" type="passenger"/>
    <trip id="217" depart="373.65" from="-381447833#1" to="218773868#3" type="passenger"/>
    <trip id="218" depart="375.37" from="-420319840#0" to="-420319848#1" type="passenger"/>
    <trip id="219" depart="377.09" from="-381452175#0" to="-117914343#2" type="passenger"/>
    <trip id="220" depart="378.81" from="-218773868#2" to="381447835#1" type="passenger"/>
    <trip id="221" depart="380.53" from="381447835#2" to="381447834#1" type="passenger"/>
    <trip id="222" depart="382.26" from="-913009312#2" to="218773868#4" type="passenger"/>
    <trip id="223" depart="383.98" from="420317540" to="913009312#8" type="passenger"/>
    <trip id="224" depart="385.70" from="-420335669" to="381452122#3" type="passenger"/>
    <trip id="225" depart="387.42" from="420319840#0" to="420319848#1" type="passenger"/>
    <trip id="226" depart="389.14" from="381447835#2" to="-381452167" type="passenger"/>
    <trip id="227" depart="390.87" from="420319840#0" to="117914352#0" type="passenger"/>
    <trip id="228" depart="392.59" from="381452132" to="381452122#3" type="passenger"/>
    <trip id="229" depart="394.31" from="-381452104#2" to="-117914352#0" type="passenger"/>
    <trip id="230" depart="396.03" from="381452175#1" to="381447835#0" type="passenger"/>
    <trip id="231" depart="397.75" from="-117914343#0" to="-117914348#2" type="passenger"/>
    <trip id="232" depart="399.48" from="-913009312#1" to="381447834#0" type="passenger"/>
    <trip id="233" depart="401.20" from="-381447817#0" to="381447836#0" type="passenger"/>
    <trip id="234" depart="402.92" from="-420331825#1" to="381447833#1" type="passenger"/>
    <trip id="235" depart="404.64" from="-381452175#1" to="-381452172" type="passenger"/>
    <trip id="236" depart="406.36" from="-381447833#0" to="381447835#3" type="passenger"/>
    <trip id="237" depart="408.08" from="381447829#0" to="-117914352#0" type="passenger"/>
    <trip id="238" depart="409.81" from="-244215399" to="420319848#0" type="passenger"/>
    <trip id="239" depart="411.53" from="-381452174#1" to="913009311" type="passenger"/>
    <trip id="240" depart="413.25" from="913009312#8" to="420317543#1" type="passenger"/>
    <trip id="241" depart="414.97" from="-381447829#0" to="-381447817#0" type="passenger"/>
    <trip id="242" depart="416.69" from="420319844" to="-913009311" type="passenger"/>
    <trip id="243" depart="418.42" from="-117914343#2" to="-381447817#0" type="passenger"/>
    <trip id="244" depart="420.14" from="-420317543#0" to="-381452174#1" type="passenger"/>
    <trip id="245" depart="421.86" from="-117914348#0" to="381452104#1" type="passenger"/>
    <trip id="246" depart="423.58" from="381452104#0" to="381452132" type="passenger"/>
    <trip id="247" depart="425.30" from="420317540" to="-381452172" type="passenger"/>
    <trip id="248" depart="427.03" from="-381447834#1" to="381447817#1" type="passenger"/>
    <trip id="249" depart="428.75" from="420317543#1" to="381452108#1" type="passenger"/>
    <trip id="250" depart="430.47" from="381452132" to="-913009311" type="passenger"/>
    <trip id="251" depart="432.19" from="381452106" to="520307306" type="passenger"/>
    <trip id="252" depart="433.91" from="381447827" to="-381447833#0" type="passenger"/>
    <trip id="253" depart="435.63" from="420319844" to="-117914348#0" type="passenger"/>
    <trip id="254" depart="437.36" from="-1126339777#1" to="-420319840#0" type="passenger"/>
    <trip id="255" depart="439.08" from="-420331827" to="913009312#6" type="passenger"/>
    <trip id="256" depart="440.80" from="381452122#3" to="-913009312#3" type="passenger"/>
    <trip id="257" depart="442.52" from="218773868#3" to="-913009311" type="passenger"/>
    <trip id="258" depart="444.24" from="420331831" to="381447817#1" type="passenger"/>
    <trip id="259" depart="445.97" from="-420331825#4" to="913009312#1" type="passenger"/>
    <trip id="260" depart="447.69" from="420319840#0" to="-601902513#1" type="passenger"/>
    <trip id="261" depart="449.41" from="913009312#6" to="-117914351#0" type="passenger"/>
    <trip id="262" depart="451.13" from="420331825#4" to="-913009312#6" type="passenger"/>
    <trip id="263" depart="452.85" from="1126339777#1" to="420331825#4" type="passenger"/>
    <trip id="264" depart="454.58" from="-913009312#1" to="-913009312#3" type="passenger"/>
    <trip id="265" depart="456.30" from="-381452160" to="381447835#3" type="passenger"/>
    <trip id="266" depart="458.02" from="-381447834#0" to="420331825#3" type="passenger"/>
    <trip id="267" depart="459.74" from="1126339777#1" to="-381447818" type="passenger"/>
    <trip id="268" depart="461.46" from="-381452104#2" to="-381447827" type="passenger"/>
    <trip id="269" depart="463.18" from="-381447829#0" to="117914343#2" type="passenger"/>
    <trip id="270" depart="464.91" from="381452172" to="381447836#2" type="passenger"/>
    <trip id="271" depart="466.63" from="913009312#7" to="913009312#9" type="passenger"/>
    <trip id="272" depart="468.35" from="381447829#0" to="420331825#1" type="passenger"/>
    <trip id="273" depart="470.07" from="601902513#0" to="117914343#2" type="passenger"/>
    <trip id="274" depart="471.79" from="420319848#0" to="117914352#1" type="passenger"/>
    <trip id="275" depart="473.52" from="381452172" to="420317543#0" type="passenger"/>
    <trip id="276" depart="475.24" from="520307306" to="117914343#1" type="passenger"/>
    <trip id="277" depart="476.96" from="-218773868#0" to="-117914351#2" type="passenger"/>
    <trip id="278" depart="478.68" from="381452104#1" to="244215552#1" type="passenger"/>
    <trip id="279" depart="480.40" from="420319848#1" to="-381447836#3" type="passenger"/>
    <trip id="280" depart="482.13" from="420319840#1" to="913009312#9" type="passenger"/>
    <trip id="281" depart="483.85" from="1126339777#0" to="-218773868#2" type="passenger"/>
    <trip id="282" depart="485.57" from="381447836#2" to="-218773868#0" type="passenger"/>
    <trip id="283" depart="487.29" from="420317540" to="420317543#1" type="passenger"/>
    <trip id="284" depart="489.01" from="-420331830" to="420335669" type="passenger"/>
    <trip id="285" depart="490.73" from="-420331830" to="420319840#0" type="passenger"/>
    <trip id="286" depart="492.46" from="-420317543#1" to="381452104#2" type="passenger"/>
    <trip id="287" depart="494.18" from="-218773868#4" to="-420331825#0" type="passenger"/>
    <trip id="288" depart="495.90" from="420319844" to="-381447817#0" type="passenger"/>
    <trip id="289" depart="497.62" from="-913009312#6" to="420319848#1" type="passenger"/>
    <trip id="290" depart="499.34" from="913009312#8" to="-913009312#7" type="passenger"/>
    <trip id="291" depart="501.07" from="-381447834#0" to="381452175#0" type="passenger"/>
    <trip id="292" depart="502.79" from="-381452104#0" to="218773868#4" type="passenger"/>
    <trip id="293" depart="504.51" from="-420319840#0" to="-117914352#0" type="passenger"/>
    <trip id="294" depart="506.23" from="-117914343#1" to="-913009311" type="passenger"/>
    <trip id="295" depart="507.95" from="-117914348#2" to="381447833#0" type="passenger"/>
    <trip id="296" depart="509.68" from="381452167" to="381452108#0" type="passenger"/>
    <trip id="297" depart="511.40" from="117914343#1" to="381447818" type="passenger"/>
    <trip id="298" depart="513.12" from="420331825#2" to="-420319844" type="passenger"/>
    <trip id="299" depart="514.84" from="381447817#1" to="-381447836#2" type="passenger"/>
    <trip id="300" depart="516.56" from="-420319848#1" to="381447835#3" type="passenger"/>
    <trip id="301" depart="518.28" from="-117914351#0" to="-381452174#1" type="passenger"/>
    <trip id="302" depart="520.01" from="-601902513#1" to="381452167" type="passenger"/>
    <trip id="303" depart="521.73" from="117914351#2" to="-218773868#1" type="passenger"/>
    <trip id="304" depart="523.45" from="381447833#1" to="-218773868#0" type="passenger"/>
    <trip id="305" depart="525.17" from="-420319848#1" to="913009312#4" type="passenger"/>
    <trip id="306" depart="526.89" from="117914348#0" to="-1126339777#0" type="passenger"/>
    <trip id="307" depart="528.62" from="-381452160" to="-420317540" type="passenger"/>
    <trip id="308" depart="530.34" from="-381447836#0" to="381452160" type="passenger"/>
    <trip id="309" depart="532.06" from="-381452175#0" to="381447835#1" type="passenger"/>
    <trip id="310" depart="533.78" from="117914352#0" to="420331825#3" type="passenger"/>
    <trip id="311" depart="535.50" from="-420319848#2" to="-1126339777#0" type="passenger"/>
    <trip id="312" depart="537.23" from="381447833#1" to="117914352#1" type="passenger"/>
    <trip id="313" depart="538.95" from="-117914348#0" to="-913009315" type="passenger"/>
    <trip id="314" depart="540.67" from="218773868#1" to="420317543#0" type="passenger"/>
    <trip id="315" depart="542.39" from="381447833#0" to="244215552#1" type="passenger"/>
    <trip id="316" depart="544.11" from="420331825#0" to="-117914343#2" type="passenger"/>
    <trip id="317" depart="545.83" from="-420331825#1" to="381447834#1" type="passenger"/>
    <trip id="318" depart="547.56" from="-420319848#1" to="420335669" type="passenger"/>
    <trip id="319" depart="549.28" from="-420317544#0" to="381452104#1" type="passenger"/>
    <trip id="320" depart="551.00" from="117914351#0" to="117914348#0" type="passenger"/>
    <trip id="321" depart="552.72" from="420331825#1" to="913009312#5" type="passenger"/>