<?xml version="1.0" encoding="UTF-8"?>

<!-- generated on 2026-04-17 02:58:06.643166 by Eclipse SUMO randomTrips.py v1.26.0
<configuration>
    <net-file value="/Users/junlee/Desktop/2026-1/js/result/tradeoff_pet_top12_seed12_60min_20260417_025716/sumo_nets/cw_71666/network.net.xml"/>
    <output-trip-file value="/Users/junlee/Desktop/2026-1/js/result/tradeoff_pet_top12_seed12_60min_20260417_025716/sumo_nets/cw_71666/routes_seed45.trips.xml"/>
    <route-file value="/Users/junlee/Desktop/2026-1/js/result/tradeoff_pet_top12_seed12_60min_20260417_025716/sumo_nets/cw_71666/routes_seed45.rou.xml"/>
    <vehicle-class value="passenger"/>
    <seed value="45"/>
    <period value="2.4470186653946073"/>
</configuration>
-->

<routes xmlns:xsi="http://www.w3.org/2001/XMLSchema-instance" xsi:noNamespaceSchemaLocation="http://sumo.dlr.de/xsd/routes_file.xsd">
    <vType id="passenger" vClass="passenger"/>
    <trip id="0" depart="0.00" from="-381452175#1" to="1126339777#0" type="passenger"/>
    <trip id="1" depart="2.45" from="-218773868#0" to="-420331825#0" type="passenger"/>
    <trip id="2" depart="4.89" from="-117914351#2" to="-1126339777#1" type="passenger"/>
    <trip id="3" depart="7.34" from="-420317543#0" to="-381447818" type="passenger"/>
    <trip id="4" depart="9.79" from="-420319840#0" to="381452122#3" type="passenger"/>
    <trip id="5" depart="12.24" from="-117914348#0" to="381447818" type="passenger"/>
    <trip id="6" depart="14.68" from="-381447818" to="381452175#2" type="passenger"/>
    <trip id="7" depart="17.13" from="381452132" to="-381452110" type="passenger"/>
    <trip id="8" depart="19.58" from="420319848#1" to="381452104#1" type="passenger"/>
    <trip id="9" depart="22.02" from="-117914352#0" to="-601902513#1" type="passenger"/>
    <trip id="10" depart="24.47" from="381452104#0" to="601902513#1" type="passenger"/>
    <trip id="11" depart="26.92" from="-381447836#0" to="-381452175#0" type="passenger"/>
    <trip id="12" depart="29.36" from="381452175#0" to="913009312#5" type="passenger"/>
    <trip id="13" depart="31.81" from="-218773868#2" to="-218773868#2" type="passenger"/>
    <trip id="14" depart="34.26" from="381452172" to="-420319844" type="passenger"/>
    <trip id="15" depart="36.71" from="-420331831" to="420331825#4" type="passenger"/>
    <trip id="16" depart="39.15" from="381452167" to="381447834#1" type="passenger"/>
    <trip id="17" depart="41.60" from="420331825#2" to="381452108#0" type="passenger"/>
    <trip id="18" depart="44.05" from="420319840#0" to="381447833#1" type="passenger"/>
    <trip id="19" depart="46.49" from="381447817#0" to="-117914351#2" type="passenger"/>
    <trip id="20" depart="48.94" from="601902513#0" to="520307306" type="passenger"/>
    <trip id="21" depart="51.39" from="-420331825#2" to="381447818" type="passenger"/>
    <trip id="22" depart="53.83" from="-117914343#0" to="117914343#0" type="passenger"/>
    <trip id="23" depart="56.28" from="381447829#0" to="-420317544#0" type="passenger"/>
    <trip id="24" depart="58.73" from="-381447829#0" to="-913009312#6" type="passenger"/>
    <trip id="25" depart="61.18" from="-218773868#1" to="-420331831" type="passenger"/>
    <trip id="26" depart="63.62" from="420331827" to="381447817#0" type="passenger"/>
    <trip id="27" depart="66.07" from="-117914343#2" to="420331825#1" type="passenger"/>
    <trip id="28" depart="68.52" from="381447835#1" to="117914348#0" type="passenger"/>
    <trip id="29" depart="70.96" from="-420317543#0" to="-420319840#0" type="passenger"/>
    <trip id="30" depart="73.41" from="-381447836#2" to="381447817#1" type="passenger"/>
    <trip id="31" depart="75.86" from="-117914348#2" to="913009312#2" type="passenger"/>
    <trip id="32" depart="78.30" from="-218773868#3" to="381447818" type="passenger"/>
    <trip id="33" depart="80.75" from="218773868#3" to="-420331825#3" type="passenger"/>
    <trip id="34" depart="83.20" from="-381452175#2" to="-913009312#4" type="passenger"/>
    <trip id="35" depart="85.65" from="-420319848#1" to="913009312#6" type="passenger"/>
    <trip id="36" depart="88.09" from="381447834#0" to="117914348#0" type="passenger"/>
    <trip id="37" depart="90.54" from="381447835#1" to="1126339777#1" type="passenger"/>
    <trip id="38" depart="92.99" from="-381447833#0" to="-117914343#1" type="passenger"/>
    <trip id="39" depart="95.43" from="913009312#7" to="420319848#1" type="passenger"/>
    <trip id="40" depart="97.88" from="-218773868#2" to="381447817#0" type="passenger"/>
    <trip id="41" depart="100.33" from="381452175#2" to="420331831" type="passenger"/>
    <trip id="42" depart="102.77" from="-117914351#0" to="-381447829#0" type="passenger"/>
    <trip id="43" depart="105.22" from="-420335669" to="244215552#1" type="passenger"/>
    <trip id="44" depart="107.67" from="-218773868#0" to="381447836#2" type="passenger"/>
    <trip id="45" depart="110.12" from="381452172" to="-913009312#5" type="passenger"/>
    <trip id="46" depart="112.56" from="420331825#0" to="-420331831" type="passenger"/>
    <trip id="47" depart="115.01" from="420319847" to="-420331830" type="passenger"/>
    <trip id="48" depart="117.46" from="-601902513#0" to="-420331827" type="passenger"/>
    <trip id="49" depart="119.90" from="381452104#1" to="420331827" type="passenger"/>
    <trip id="50" depart="122.35" from="-117914351#2" to="218773868#4" type="passenger"/>
    <trip id="51" depart="124.80" from="420319848#0" to="381447836#0" type="passenger"/>
    <trip id="52" depart="127.24" from="-381452132" to="-420331825#4" type="passenger"/>
    <trip id="53" depart="129.69" from="420331827" to="-381452122#3" type="passenger"/>
    <trip id="54" depart="132.14" from="913009312#4" to="-520307306" type="passenger"/>
    <trip id="55" depart="134.59" from="117914348#1" to="381447836#3" type="passenger"/>
    <trip id="56" depart="137.03" from="381447836#0" to="218773868#4" type="passenger"/>
    <trip id="57" depart="139.48" from="420331825#2" to="381447833#0" type="passenger"/>
    <trip id="58" depart="141.93" from="601902513#1" to="381447834#0" type="passenger"/>
    <trip id="59" depart="144.37" from="244215552#1" to="-117914351#0" type="passenger"/>
    <trip id="60" depart="146.82" from="601902513#0" to="-381452167" type="passenger"/>
    <trip id="61" depart="149.27" from="-381452122#3" to="-117914348#2" type="passenger"/>
    <trip id="62" depart="151.72" from="381447829#0" to="-420331825#4" type="passenger"/>
    <trip id="63" depart="154.16" from="381447835#0" to="420317543#1" type="passenger"/>
    <trip id="64" depart="156.61" from="913009312#3" to="420317543#0" type="passenger"/>
    <trip id="65" depart="159.06" from="420319848#0" to="-420331830" type="passenger"/>
    <trip id="66" depart="161.50" from="-117914348#3" to="381452174#0" type="passenger"/>
    <trip id="67" depart="163.95" from="913009315" to="-913009312#7" type="passenger"/>
    <trip id="68" depart="166.40" from="420331831" to="117914352#1" type="passenger"/>
    <trip id="69" depart="168.84" from="-420331831" to="420319840#1" type="passenger"/>
    <trip id="70" depart="171.29" from="-117914351#0" to="-420331825#3" type="passenger"/>
    <trip id="71" depart="173.74" from="381447836#3" to="-218773868#1" type="passenger"/>
    <trip id="72" depart="176.19" from="117914352#1" to="-420331831" type="passenger"/>
    <trip id="73" depart="178.63" from="-381452108#1" to="-601902513#1" type="passenger"/>
    <trip id="74" depart="181.08" from="381452167" to="381447835#1" type="passenger"/>
    <trip id="75" depart="183.53" from="244215552#1" to="381452174#1" type="passenger"/>
    <trip id="76" depart="185.97" from="-601902513#1" to="218773868#2" type="passenger"/>
    <trip id="77" depart="188.42" from="-218773868#3" to="381447834#1" type="passenger"/>
    <trip id="78" depart="190.87" from="381447835#2" to="381447818" type="passenger"/>
    <trip id="79" depart="193.31" from="420317543#0" to="913009312#8" type="passenger"/>
    <trip id="80" depart="195.76" from="381447835#0" to="-420317540" type="passenger"/>
    <trip id="81" depart="198.21" from="420331825#2" to="381447835#1" type="passenger"/>
    <trip id="82" depart="200.66" from="381447831" to="-381447833#1" type="passenger"/>
    <trip id="83" depart="203.10" from="218773868#1" to="-420331825#0" type="passenger"/>
    <trip id="84" depart="205.55" from="218773868#3" to="601902513#1" type="passenger"/>
    <trip id="85" depart="208.00" from="-420331831" to="-117914343#0" type="passenger"/>
    <trip id="86" depart="210.44" from="-381447817#0" to="117914348#3" type="passenger"/>
    <trip id="87" depart="212.89" from="420319848#1" to="-117914348#2" type="passenger"/>
    <trip id="88" depart="215.34" from="-601902513#1" to="-420331825#0" type="passenger"/>
    <trip id="89" depart="217.78" from="-913009312#4" to="381447818" type="passenger"/>
    <trip id="90" depart="220.23" from="117914343#1" to="-420317540" type="passenger"/>
    <trip id="91" depart="222.68" from="420331825#3" to="420317543#1" type="passenger"/>
    <trip id="92" depart="225.13" from="420331831" to="-381447829#0" type="passenger"/>
    <trip id="93" depart="227.57" from="117914351#0" to="-381452172" type="passenger"/>
    <trip id="94" depart="230.02" from="-218773868#2" to="601902513#1" type="passenger"/>
    <trip id="95" depart="232.47" from="381447835#1" to="-913009312#6" type="passenger"/>
    <trip id="96" depart="234.91" from="381452174#1" to="420319848#2" type="passenger"/>
    <trip id="97" depart="237.36" from="-913009312#7" to="-381447817#1" type="passenger"/>
    <trip id="98" depart="239.81" from="520307306" to="117914343#1" type="passenger"/>
    <trip id="99" depart="242.25" from="117914348#1" to="420331825#3" type="passenger"/>
    <trip id="100" depart="244.70" from="913009312#1" to="-381447833#0" type="passenger"/>
    <trip id="101" depart="247.15" from="-381447817#0" to="913009312#9" type="passenger"/>
    <trip id="102" depart="249.60" from="117914348#1" to="381447829#0" type="passenger"/>
    <trip id="103" depart="252.04" from="381447836#3" to="-913009311" type="passenger"/>
    <trip id="104" depart="254.49" from="-420335669" to="420331825#3" type="passenger"/>
    <trip id="105" depart="256.94" from="381447829#0" to="-117914343#1" type="passenger"/>
    <trip id="106" depart="259.38" from="-117914348#0" to="420319848#0" type="passenger"/>
    <trip id="107" depart="261.83" from="381447817#0" to="381452122#3" type="passenger"/>
    <trip id="108" depart="264.28" from="117914343#0" to="381452104#0" type="passenger"/>
    <trip id="109" depart="266.73" from="-420331825#1" to="-420331825#4" type="passenger"/>
    <trip id="110" depart="269.17" from="-420331825#1" to="-420317544#0" type="passenger"/>
    <trip id="111" depart="271.62" from="913009312#4" to="420331825#4" type="passenger"/>
    <trip id="112" depart="274.07" from="117914351#2" to="-117914348#1" type="passenger"/>
    <trip id="113" depart="276.51" from="913009311" to="420317543#1" type="passenger"/>
    <trip id="114" depart="278.96" from="381447833#1" to="913009312#5" type="passenger"/>
    <trip id="115" depart="281.41" from="381452172" to="244215552#1" type="passenger"/>
    <trip id="116" depart="283.85" from="-420319848#2" to="381447818" type="passenger"/>
    <trip id="117" depart="286.30" from="-913009312#1" to="-381447836#3" type="passenger"/>
    <trip id="118" depart="288.75" from="-381447834#0" to="-381447817#1" type="passenger"/>
    <trip id="119" depart="291.20" from="381447836#0" to="-420331827" type="passenger"/>
    <trip id="120" depart="293.64" from="913009313#1" to="601902513#0" type="passenger"/>
    <trip id="121" depart="296.09" from="-420317543#0" to="-381447817#0" type="passenger"/>
    <trip id="122" depart="298.54" from="420319847" to="420319848#2" type="passenger"/>
    <trip id="123" depart="300.98" from="-420331827" to="381452167" type="passenger"/>
    <trip id="124" depart="303.43" from="913009312#2" to="-913009312#5" type="passenger"/>
    <trip id="125" depart="305.88" from="-913009312#4" to="381447817#1" type="passenger"/>
    <trip id="126" depart="308.32" from="420319848#1" to="381447836#3" type="passenger"/>
    <trip id="127" depart="310.77" from="913009313#1" to="-381447833#0" type="passenger"/>
    <trip id="128" depart="313.22" from="-218773868#2" to="-381447827" type="passenger"/>
    <trip id="129" depart="315.67" from="913009312#2" to="-420317544#0" type="passenger"/>
    <trip id="130" depart="318.11" from="-117914352#0" to="-381447833#1" type="passenger"/>
    <trip id="131" depart="320.56" from="-117914343#1" to="117914348#2" type="passenger"/>
    <trip id="132" depart="323.01" from="381447833#0" to="-420317543#0" type="passenger"/>
    <trip id="133" depart="325.45" from="-117914343#0" to="-117914348#0" type="passenger"/>
    <trip id="134" depart="327.90" from="381447836#2" to="-1126339777#0" type="passenger"/>
    <trip id="135" depart="330.35" from="-381452160" to="-913009312#5" type="passenger"/>
    <trip id="136" depart="332.79" from="-601902513#1" to="913009311" type="passenger"/>
    <trip id="137" depart="335.24" from="913009312#1" to="117914343#0" type="passenger"/>
    <trip id="138" depart="337.69" from="381447827" to="-420331825#2" type="passenger"/>
    <trip id="139" depart="340.14" from="381447833#1" to="-117914351#0" type="passenger"/>
    <trip id="140" depart="342.58" from="-381447836#3" to="420319840#0" type="passenger"/>
    <trip id="141" depart="345.03" from="-913009312#6" to="1126339777#1" type="passenger"/>
    <trip id="142" depart="347.48" from="420319847" to="381447834#0" type="passenger"/>
    <trip id="143" depart="349.92" from="-381447834#1" to="-913009312#8" type="passenger"/>
    <trip id="144" depart="352.37" from="420331825#0" to="-420331825#1" type="passenger"/>
    <trip id="145" depart="354.82" from="913009312#4" to="-381452106" type="passenger"/>
    <trip id="146" depart="357.26" from="-381452175#2" to="-381452132" type="passenger"/>
    <trip id="147" depart="359.71" from="381447835#0" to="381452132" type="passenger"/>
    <trip id="148" depart="362.16" from="420331825#4" to="-381447831" type="passenger"/>
    <trip id="149" depart="364.61" from="913009315" to="381447835#3" type="passenger"/>
    <trip id="150" depart="367.05" from="-381452175#1" to="381447835#1" type="passenger"/>
    <trip id="151" depart="369.50" from="381447827" to="-420331825#2" type="passenger"/>
    <trip id="152" depart="371.95" from="-381452175#1" to="-218773868#1" type="passenger"/>
    <trip id="153" depart="374.39" from="-381452108#0" to="420331825#1" type="passenger"/>
    <trip id="154" depart="376.84" from="-420331827" to="381447834#0" type="passenger"/>
    <trip id="155" depart="379.29" from="-913009312#5" to="-381452172" type="passenger"/>
    <trip id="156" depart="381.73" from="-913009312#2" to="-381452132" type="passenger"/>
    <trip id="157" depart="384.18" from="-913009312#2" to="-381452106" type="passenger"/>
    <trip id="158" depart="386.63" from="-381447817#1" to="381452175#1" type="passenger"/>
    <trip id="159" depart="389.08" from="-420319840#0" to="381447835#3" type="passenger"/>
    <trip id="160" depart="391.52" from="913009311" to="601902513#0" type="passenger"/>
    <trip id="161" depart="393.97" from="420319847" to="117914343#0" type="passenger"/>
    <trip id="162" depart="396.42" from="117914348#0" to="-117914343#0" type="passenger"/>
    <trip id="163" depart="398.86" from="381447835#3" to="117914343#1" type="passenger"/>
    <trip id="164" depart="401.31" from="-420319848#2" to="420319848#2" type="passenger"/>
    <trip id="165" depart="403.76" from="381452172" to="381452175#0" type="passenger"/>
    <trip id="166" depart="406.21" from="-420319848#2" to="117914343#2" type="passenger"/>
    <trip id="167" depart="408.65" from="381452175#1" to="520307306" type="passenger"/>
    <trip id="168" depart="411.10" from="1126339777#1" to="381452104#1" type="passenger"/>
    <trip id="169" depart="413.55" from="218773868#1" to="-381452167" type="passenger"/>
    <trip id="170" depart="415.99" from="420331825#3" to="117914348#3" type="passenger"/>
    <trip id="171" depart="418.44" from="-381447836#0" to="218773868#2" type="passenger"/>
    <trip id="172" depart="420.89" from="420331825#1" to="-381447836#0" type="passenger"/>
    <trip id="173" depart="423.33" from="-381447834#1" to="381447829#0" type="passenger"/>
    <trip id="174" depart="425.78" from="-381447818" to="381452167" type="passenger"/>
    <trip id="175" depart="428.23" from="381447818" to="-913009313#1" type="passenger"/>
    <trip id="176" depart="430.68" from="-913009312#5" to="913009312#7" type="passenger"/>
    <trip id="177" depart="433.12" from="-420317544#1" to="117914352#1" type="passenger"/>
    <trip id="178" depart="435.57" from="-913009312#2" to="913009312#4" type="passenger"/>
    <trip id="179" depart="438.02" from="-420331830" to="-1126339777#0" type="passenger"/>
    <trip id="180" depart="440.46" from="-913009312#4" to="117914351#0" type="passenger"/>
    <trip id="181" depart="442.91" from="381452167" to="381447833#0" type="passenger"/>
    <trip id="182" depart="445.36" from="420331827" to="-381452174#0" type="passenger"/>
    <trip id="183" depart="447.80" from="381447833#0" to="420319840#1" type="passenger"/>
    <trip id="184" depart="450.25" from="420331830" to="420317543#0" type="passenger"/>
    <trip id="185" depart="452.70" from="381447835#1" to="-913009312#1" type="passenger"/>
    <trip id="186" depart="455.15" from="913009311" to="381452122#3" type="passenger"/>
    <trip id="187" depart="457.59" from="-913009312#2" to="913009312#1" type="passenger"/>
    <trip id="188" depart="460.04" from="420331827" to="913009312#6" type="passenger"/>
    <trip id="189" depart="462.49" from="913009312#4" to="913009312#2" type="passenger"/>
    <trip id="190" depart="464.93" from="913009312#8" to="-117914343#2" type="passenger"/>
    <trip id="191" depart="467.38" from="913009312#3" to="420319840#0" type="passenger"/>
    <trip id="192" depart="469.83" from="-381447836#3" to="381447829#0" type="passenger"/>
    <trip id="193" depart="472.27" from="-420331830" to="381452122#3" type="passenger"/>
    <trip id="194" depart="474.72" from="601902513#1" to="381452132" type="passenger"/>
    <trip id="195" depart="477.17" from="420319848#0" to="-420317543#0" type="passenger"/>
    <trip id="196" depart="479.62" from="117914343#1" to="-913009312#8" type="passenger"/>
    <trip id="197" depart="482.06" from="913009312#2" to="-381452122#3" type="passenger"/>
    <trip id="198" depart="484.51" from="-420331825#2" to="913009312#1" type="passenger"/>
    <trip id="199" depart="486.96" from="420331831" to="-381452175#0" type="passenger"/>
    <trip id="200" depart="489.40" from="-420319848#0" to="381447833#0" type="passenger"/>
    <trip id="201" depart="491.85" from="-244215399" to="381447836#3" type="passenger"/>
    <trip id="202" depart="494.30" from="1126339777#1" to="-381447817#0" type="passenger"/>
    <trip id="203" depart="496.74" from="420319848#0" to="117914348#3" type="passenger"/>
    <trip id="204" depart="499.19" from="381447835#0" to="-381452174#0" type="passenger"/>
    <trip id="205" depart="501.64" from="381447836#0" to="-420319848#1" type="passenger"/>
    <trip id="206" depart="504.09" from="913009312#9" to="-117914352#0" type="passenger"/>
    <trip id="207" depart="506.53" from="-117914348#2" to="-420331831" type="passenger"/>
    <trip id="208" depart="508.98" from="-381447818" to="-381447831" type="passenger"/>
    <trip id="209" depart="511.43" from="381452174#0" to="117914351#0" type="passenger"/>
    <trip id="210" depart="513.87" from="381447836#3" to="-381447836#3" type="passenger"/>
    <trip id="211" depart="516.32" from="381447833#1" to="381452174#0" type="passenger"/>
    <trip id="212" depart="518.77" from="-218773868#0" to="-381447836#3" type="passenger"/>
    <trip id="213" depart="521.21" from="-913009312#6" to="-420319848#0" type="passenger"/>
    <trip id="214" depart="523.66" from="420319848#1" to="117914352#0" type="passenger"/>
    <trip id="215" depart="526.11" from="-913009312#8" to="-420331831" type="passenger"/>
    <trip id="216" depart="528.56" from="-381447834#1" to="-381452104#1" type="passenger"/>
    <trip id="217" depart="531.00" from="-381452175#1" to="-1126339777#1" type="passenger"/>
    <trip id="218" depart="533.45" from="-381447834#1" to="218773868#3" type="passenger"/>
    <trip id="219" depart="535.90" from="117914343#1" to="117914343#0" type="passenger"/>
    <trip id="220" depart="538.34" from="117914351#2" to="218773868#1" type="passenger"/>
    <trip id="221" depart="540.79" from="913009315" to="117914348#0" type="passenger"/>
    <trip id="222" depart="543.24" from="381452175#0" to="-420319840#0" type="passenger"/>
    <trip id="223" depart="545.69" from="420317543#1" to="117914348#2" type="passenger"/>
    <trip id="224" depart="548.13" from="420331825#1" to="913009312#4" type="passenger"/>
    <trip id="225" depart="550.58" from="-381452104#0" to="420331830" type="passenger"/>
    <trip id="226" depart="553.03" from="381447833#0" to="420331831" type="passenger"/>
    <trip id="227" depart="555.47" from="-117914348#2" to="420319848#0" type="passenger"/>
    <trip id="228" depart="557.92" from="381452167" to="420331825#1" type="passenger"/>
    <trip id="229" depart="560.37" from="-420317543#0" to="-420319847" type="passenger"/>
    <trip id="230" depart="562.81" from="381447834#0" to="-420331825#2" type="passenger"/>
    <trip id="231" depart="565.26" from="117914352#0" to="420319848#0" type="passenger"/>
    <trip id="232" depart="567.71" from="420331830" to="381452108#0" type="passenger"/>
    <trip id="233" depart="570.16" from="420331825#0" to="-117914343#0" type="passenger"/>
    <trip id="234" depart="572.60" from="381447829#0" to="420335669" type="passenger"/>
    <trip id="235" depart="575.05" from="-420319848#2" to="244215552#1" type="passenger"/>
    <trip id="236" depart="577.50" from="-218773868#2" to="381452160" type="passenger"/>
    <trip id="237" depart="579.94" from="-381452108#1" to="913009312#8" type="passenger"/>
    <trip id="238" depart="582.39" from="381447818" to="-117914348#2" type="passenger"/>
    <trip id="239" depart="584.84" from="117914351#0" to="-381447827" type="passenger"/>
    <trip id="240" depart="587.28" from="-420319848#0" to="381447835#1" type="passenger"/>
    <trip id="241" depart="589.73" from="-218773868#0" to="420319840#1" type="passenger"/>
    <trip id="242" depart="592.18" from="381447836#2" to="381447835#1" type="passenger"/>
    <trip id="243" depart="594.63" from="-420319848#0" to="-381447817#1" type="passenger"/>
    <trip id="244" depart="597.07" from="117914348#2" to="381447835#0" type="passenger"/>
    <trip id="245" depart="599.52" from="913009312#3" to="381447834#1" type="passenger"/>
    <trip id="246" depart="601.97" from="381452167" to="-913009312#7" type="passenger"/>
    <trip id="247" depart="604.41" from="-381452122#3" to="117914348#3" type="passenger"/>
    <trip id="248" depart="606.86" from="913009312#1" to="117914351#2" type="passenger"/>
    <trip id="249" depart="609.31" from="-117914348#3" to="381447829#0" type="passenger"/>
    <trip id="250" depart="611.75" from="420331825#1" to="1126339777#0" type="passenger"/>
    <trip id="251" depart="614.20" from="381447836#2" to="-381447836#0" type="passenger"/>
    <trip id="252" depart="616.65" from="381447835#3" to="117914348#2" type="passenger"/>
    <trip id="253" depart="619.10" from="420317543#0" to="1126339777#1" type="passenger"/>
    <trip id="254" depart="621.54" from="-913009312#4" to="-913009312#4" type="passenger"/>
    <trip id="255" depart="623.99" from="420331827" to="913009312#9" type="passenger"/>
    <trip id="256" depart="626.44" from="117914348#1" to="-381452174#0" type="passenger"/>
    <trip id="257" depart="628.88" from="381452122#3" to="-381452175#0" type="passenger"/>
    <trip id="258" depart="631.33" from="420331830" to="-381447817#0" type="passenger"/>
    <trip id="259" depart="633.78" from="-117914348#0" to="420319840#1" type="passenger"/>
    <trip id="260" depart="636.22" from="381447817#1" to="381452104#0" type="passenger"/>
    <trip id="261" depart="638.67" from="-117914351#0" to="381452108#1" type="passenger"/>
    <trip id="262" depart="641.12" from="913009312#3" to="-117914343#1" type="passenger"/>
    <trip id="263" depart="643.57" from="-381452132" to="420319840#0" type="passenger"/>
    <trip id="264" depart="646.01" from="420317543#0" to="218773868#3" type="passenger"/>
    <trip id="265" depart="648.46" from="913009312#2" to="218773868#1" type="passenger"/>
    <trip id="266" depart="650.91" from="-381452122#3" to="381452175#2" type="passenger"/>
    <trip id="267" depart="653.35" from="-420317543#1" to="-381452132" type="passenger"/>
    <trip id="268" depart="655.80" from="-381452175#1" to="-381447836#0" type="passenger"/>
    <trip id="269" depart="658.25" from="-381452104#1" to="381452175#0" type="passenger"/>
    <trip id="270" depart="660.70" from="-913009312#4" to="-1126339777#0" type="passenger"/>
    <trip id="271" depart="663.14" from="913009312#3" to="-381447834#0" type="passenger"/>
    <trip id="272" depart="665.59" from="-381452174#1" to="117914343#1" type="passenger"/>
    <trip id="273" depart="668.04" from="-420331825#3" to="601902513#1" type="passenger"/>
    <trip id="274" depart="670.48" from="420319840#1" to="420331825#4" type="passenger"/>
    <trip id="275" depart="672.93" from="-381452174#0" to="-381447833#1" type="passenger"/>
    <trip id="276" depart="675.38" from="-117914348#1" to="-913009312#1" type="passenger"/>
    <trip id="277" depart="677.82" from="-381452174#1" to="-381452122#3" type="passenger"/>
    <trip id="278" depart="680.27" from="-117914348#0" to="-381452122#3" type="passenger"/>
    <trip id="279" depart="682.72" from="913009312#8" to="-420319848#1" type="passenger"/>
    <trip id="280" depart="685.17" from="381452104#1" to="-601902513#0" type="passenger"/>
    <trip id="281" depart="687.61" from="-420319848#1" to="-601902513#1" type="passenger"/>
    <trip id="282" depart="690.06" from="-913009312#7" to="-913009311" type="passenger"/>
    <trip id="283" depart="692.51" from="913009312#1" to="-218773868#2" type="passenger"/>
    <trip id="284" depart="694.95" from="420319847" to="381452104#0" type="passenger"/>
    <trip id="285" depart="697.40" from="420319848#0" to="381452175#0" type="passenger"/>
    <trip id="286" depart="699.85" from="420331825#2" to="-218773868#1" type="passenger"/>
    <trip id="287" depart="702.29" from="-420331825#1" to="381447817#0" type="passenger"/>
    <trip id="288" depart="704.74" from="420331825#2" to="-1126339777#1" type="passenger"/>
    <trip id="289" depart="707.19" from="-420331825#2" to="-381452106" type="passenger"/>
    <trip id="290" depart="709.64" from="-381452175#1" to="381452175#0" type="passenger"/>
    <trip id="291" depart="712.08" from="381447829#0" to="913009312#6" type="passenger"/>
    <trip id="292" depart="714.53" from="244215552#0" to="-117914351#0" type="passenger"/>
    <trip id="293" depart="716.98" from="-381452174#0" to="-420331825#2" type="passenger"/>
    <trip id="294" depart="719.42" from="-218773868#3" to="381452175#0" type="passenger"/>
    <trip id="295" depart="721.87" from="913009312#9" to="420335669" type="passenger"/>
    <trip id="296" depart="724.32" from="-117914343#0" to="420317544#1" type="passenger"/>
    <trip id="297" depart="726.76" from="913009312#4" to="-381452132" type="passenger"/>
    <trip id="298" depart="729.21" from="-381452160" to="-381452106" type="passenger"/>
    <trip id="299" depart="731.66" from="-601902513#1" to="420331825#3" type="passenger"/>
    <trip id="300" depart="734.11" from="420319844" to="-381447827" type="passenger"/>
    <trip id="301" depart="736.55" from="-381447817#0" to="381452175#2" type="passenger"/>
    <trip id="302" depart="739.00" from="420331825#3" to="381452175#1" type="passenger"/>
    <trip id="303" depart="741.45" from="-420317544#0" to="117914343#2" type="passenger"/>
    <trip id="304" depart="743.89" from="420319848#1" to="913009312#8" type="passenger"/>
    <trip id="305" depart="746.34" from="-601902513#1" to="244215399" type="passenger"/>
    <trip id="306" depart="748.79" from="420319840#0" to="913009312#2" type="passenger"/>
    <trip id="307" depart="751.23" from="-218773868#3" to="-381447827" type="passenger"/>
    <trip id="308" depart="753.68" from="913009312#3" to="-381452104#1" type="passenger"/>
    <trip id="309" depart="756.13" from="-420331830" to="-420317543#0" type="passenger"/>
    <trip id="310" depart="758.58" from="381452175#1" to="381447834#1" type="passenger"/>
    <trip id="311" depart="761.02" from="-420331827" to="-381452174#1" type="passenger"/>
    <trip id="312" depart="763.47" from="381452174#1" to="-381447817#1" type="passenger"/>
    <trip id="313" depart="765.92" from="420331831" to="-381447829#0" type="passenger"/>
    <trip id="314" depart="768.36" from="913009312#2" to="-117914343#0" type="passenger"/>
    <trip id="315" depart="770.81" from="420331830" to="-420331825#2" type="passenger"/>
    <trip id="316" depart="773.26" from="-117914343#1" to="913009312#3" type="passenger"/>
    <trip id="317" depart="775.70" from="218773868#2" to="-420331825#2" type="passenger"/>
    <trip id="318" depart="778.15" from="-381447829#0" to="420317543#0" type="passenger"/>
    <trip id="319" depart="780.60" from="1126339777#1" to="-381447833#0" type="passenger"/>
    <trip id="320" depart="783.05" from="-381452108#0" to="244215552#1" type="passenger"/>
    <trip id="321" depart="785.49" from="117914351#2" to="-913009312#8" type="passenger"/>
    <trip id="322" depart="787.94" from="420331825#2" to="-913009313#1" type="passenger"/>
    <trip id="323" depart="790.39" from="-218773868#1" to="-913009312#7" type="passenger"/>