<?xml version='1.0' encoding='utf-8'?>
<routes>
  <vType id="adult" vClass="pedestrian" minGap="0.25" width="0.5" length="0.25" maxSpeed="1.5" speedDev="0.1" />
  <vType id="elderly" vClass="pedestrian" minGap="0.25" width="0.5" length="0.25" maxSpeed="1.13" speedDev="0.15" color="255,0,0" />
  <person id="ped_0" depart="0.64" type="adult">
    <walk from="381226323" to="464461053#2" />
  </person>
  <person id="ped_1" depart="4.39" type="adult">
    <walk from="381226323" to="464461053#2" />
  </person>
  <person id="ped_2" depart="8.56" type="adult">
    <walk from="381226323" to="464461053#2" />
  </person>
  <person id="ped_3" depart="9.78" type="adult">
    <walk from="381226323" to="464461053#2" />
  </person>
  <person id="ped_4" depart="11.90" type="adult">
    <walk from="381226323" to="464461053#2" />
  </person>
  <person id="ped_5" depart="13.48" type="adult">
    <walk from="381226323" to="464461053#2" />
  </person>
  <person id="ped_6" depart="15.34" type="elderly">
    <walk from="381226323" to="464461053#2" />
  </person>
  <person id="ped_7" depart="18.16" type="adult">
    <walk from="381226323" to="464461053#2" />
  </person>
  <person id="ped_8" depart="20.29" type="adult">
    <walk from="381226323" to="464461053#2" />
  </person>
  <person id="ped_9" depart="21.89" type="elderly">
    <walk from="381226323" to="464461053#2" />
  </person>
  <person id="ped_10" depart="25.45" type="adult">
    <walk from="381226323" to="464461053#2" />
  </person>
  <person id="ped_11" depart="25.77" type="elderly">
    <walk from="381226323" to="464461053#2" />
  </person>
  <person id="ped_12" depart="32.76" type="adult">
    <walk from="381226323" to="464461053#2" />
  </person>
  <person id="ped_13" depart="33.84" type="adult">
    <walk from="381226323" to="464461053#2" />
  </person>
  <person id="ped_14" depart="38.91" type="adult">
    <walk from="381226323" to="464461053#2" />
  </person>
  <person id="ped_15" depart="41.11" type="adult">
    <walk from="381226323" to="464461053#2" />
  </person>
  <person id="ped_16" depart="42.67" type="adult">
    <walk from="381226323" to="464461053#2" />
  </person>
  <person id="ped_17" depart="42.72" type="adult">
    <walk from="381226323" to="464461053#2" />
  </person>
  <person id="ped_18" depart="45.48" type="adult">
    <walk from="381226323" to="464461053#2" />
  </person>
  <person id="ped_19" depart="49.01" type="elderly">
    <walk from="381226323" to="464461053#2" />
  </person>
  <person id="ped_20" depart="49.13" type="elderly">
    <walk from="381226323" to="464461053#2" />
  </person>
  <person id="ped_21" depart="52.99" type="elderly">
    <walk from="381226323" to="464461053#2" />
  </person>
  <person id="ped_22" depart="54.16" type="adult">
    <walk from="381226323" to="464461053#2" />
  </person>
  <person id="ped_23" depart="56.63" type="adult">
    <walk from="381226323" to="464461053#2" />
  </person>
  <person id="ped_24" depart="62.12" type="adult">
    <walk from="381226323" to="464461053#2" />
  </person>
  <person id="ped_25" depart="62.43" type="adult">
    <walk from="381226323" to="464461053#2" />
  </person>
  <person id="ped_26" depart="63.82" type="adult">
    <walk from="381226323" to="464461053#2" />
  </person>
  <person id="ped_27" depart="65.79" type="elderly">
    <walk from="381226323" to="464461053#2" />
  </person>
  <person id="ped_28" depart="71.47" type="adult">
    <walk from="381226323" to="464461053#2" />
  </person>
  <person id="ped_29" depart="80.60" type="adult">
    <walk from="381226323" to="464461053#2" />
  </person>
  <person id="ped_30" depart="84.48" type="adult">
    <walk from="381226323" to="464461053#2" />
  </person>
  <person id="ped_31" depart="90.77" type="adult">
    <walk from="381226323" to="464461053#2" />
  </person>
  <person id="ped_32" depart="96.90" type="adult">
    <walk from="381226323" to="464461053#2" />
  </person>
  <person id="ped_33" depart="98.22" type="adult">
    <walk from="381226323" to="464461053#2" />
  </person>
  <person id="ped_34" depart="99.99" type="adult">
    <walk from="381226323" to="464461053#2" />
  </person>
  <person id="ped_35" depart="100.10" type="adult">
    <walk from="381226323" to="464461053#2" />
  </person>
  <person id="ped_36" depart="100.85" type="elderly">
    <walk from="381226323" to="464461053#2" />
  </person>
  <person id="ped_37" depart="101.71" type="elderly">
    <walk from="381226323" to="464461053#2" />
  </person>
  <person id="ped_38" depart="103.52" type="adult">
    <walk from="381226323" to="464461053#2" />
  </person>
  <person id="ped_39" depart="104.17" type="adult">
    <walk from="381226323" to="464461053#2" />
  </person>
  <person id="ped_40" depart="107.08" type="adult">
    <walk from="381226323" to="464461053#2" />
  </person>
  <person id="ped_41" depart="112.85" type="elderly">
    <walk from="381226323" to="464461053#2" />
  </person>
  <person id="ped_42" depart="114.93" type="adult">
    <walk from="381226323" to="464461053#2" />
  </person>
  <person id="ped_43" depart="115.88" type="adult">
    <walk from="381226323" to="464461053#2" />
  </person>
  <person id="ped_44" depart="122.32" type="elderly">
    <walk from="381226323" to="464461053#2" />
  </person>
  <person id="ped_45" depart="134.24" type="adult">
    <walk from="381226323" to="464461053#2" />
  </person>
  <person id="ped_46" depart="135.07" type="adult">
    <walk from="381226323" to="464461053#2" />
  </person>
  <person id="ped_47" depart="136.97" type="adult">
    <walk from="381226323" to="464461053#2" />
  </person>
  <person id="ped_48" depart="139.95" type="adult">
    <walk from="381226323" to="464461053#2" />
  </person>
  <person id="ped_49" depart="140.01" type="adult">
    <walk from="381226323" to="464461053#2" />
  </person>
  <person id="ped_50" depart="142.47" type="elderly">
    <walk from="381226323" to="464461053#2" />
  </person>
  <person id="ped_51" depart="143.97" type="adult">
    <walk from="381226323" to="464461053#2" />
  </person>
  <person id="ped_52" depart="146.26" type="elderly">
    <walk from="381226323" to="464461053#2" />
  </person>
  <person id="ped_53" depart="152.36" type="adult">
    <walk from="381226323" to="464461053#2" />
  </person>
  <person id="ped_54" depart="157.95" type="adult">
    <walk from="381226323" to="464461053#2" />
  </person>
  <person id="ped_55" depart="160.34" type="adult">
    <walk from="381226323" to="464461053#2" />
  </person>
  <person id="ped_56" depart="161.07" type="adult">
    <walk from="381226323" to="464461053#2" />
  </person>
  <person id="ped_57" depart="165.41" type="adult">
    <walk from="381226323" to="464461053#2" />
  </person>
  <person id="ped_58" depart="172.52" type="adult">
    <walk from="381226323" to="464461053#2" />
  </person>
  <person id="ped_59" depart="173.46" type="elderly">
    <walk from="381226323" to="464461053#2" />
  </person>
  <person id="ped_60" depart="173.60" type="adult">
    <walk from="381226323" to="464461053#2" />
  </person>
  <person id="ped_61" depart="173.77" type="elderly">
    <walk from="381226323" to="464461053#2" />
  </person>
  <person id="ped_62" depart="175.65" type="adult">
    <walk from="381226323" to="464461053#2" />
  </person>
  <person id="ped_63" depart="176.28" type="adult">
    <walk from="381226323" to="464461053#2" />
  </person>
  <person id="ped_64" depart="176.28" type="adult">
    <walk from="381226323" to="464461053#2" />
  </person>
  <person id="ped_65" depart="188.81" type="adult">
    <walk from="381226323" to="464461053#2" />
  </person>
  <person id="ped_66" depart="189.66" type="elderly">
    <walk from="381226323" to="464461053#2" />
  </person>
  <person id="ped_67" depart="191.97" type="elderly">
    <walk from="381226323" to="464461053#2" />
  </person>
  <person id="ped_68" depart="202.26" type="adult">
    <walk from="381226323" to="464461053#2" />
  </person>
  <person id="ped_69" depart="206.23" type="elderly">
    <walk from="381226323" to="464461053#2" />
  </person>
  <person id="ped_70" depart="208.80" type="adult">
    <walk from="381226323" to="464461053#2" />
  </person>
  <person id="ped_71" depart="210.28" type="adult">
    <walk from="381226323" to="464461053#2" />
  </person>
  <person id="ped_72" depart="215.73" type="adult">
    <walk from="381226323" to="464461053#2" />
  </person>
  <person id="ped_73" depart="219.64" type="adult">
    <walk from="381226323" to="464461053#2" />
  </person>
  <person id="ped_74" depart="222.20" type="adult">
    <walk from="381226323" to="464461053#2" />
  </person>
  <person id="ped_75" depart="222.99" type="adult">
    <walk from="381226323" to="464461053#2" />
  </person>
  <person id="ped_76" depart="225.18" type="adult">
    <walk from="381226323" to="464461053#2" />
  </person>
  <person id="ped_77" depart="225.40" type="adult">
    <walk from="381226323" to="464461053#2" />
  </person>
  <person id="ped_78" depart="233.09" type="elderly">
    <walk from="381226323" to="464461053#2" />
  </person>
  <person id="ped_79" depart="236.23" type="adult">
    <walk from="381226323" to="464461053#2" />
  </person>
  <person id="ped_80" depart="236.86" type="adult">
    <walk from="381226323" to="464461053#2" />
  </person>
  <person id="ped_81" depart="248.14" type="elderly">
    <walk from="381226323" to="464461053#2" />
  </person>
  <person id="ped_82" depart="254.64" type="elderly">
    <walk from="381226323" to="464461053#2" />
  </person>
  <person id="ped_83" depart="254.86" type="adult">
    <walk from="381226323" to="464461053#2" />
  </person>
  <person id="ped_84" depart="255.14" type="adult">
    <walk from="381226323" to="464461053#2" />
  </person>
  <person id="ped_85" depart="257.43" type="adult">
    <walk from="381226323" to="464461053#2" />
  </person>
  <person id="ped_86" depart="257.95" type="elderly">
    <walk from="381226323" to="464461053#2" />
  </person>
  <person id="ped_87" depart="262.22" type="adult">
    <walk from="381226323" to="464461053#2" />
  </person>
  <person id="ped_88" depart="270.61" type="adult">
    <walk from="381226323" to="464461053#2" />
  </person>
  <person id="ped_89" depart="270.85" type="adult">
    <walk from="381226323" to="464461053#2" />
  </person>
  <person id="ped_90" depart="271.98" type="adult">
    <walk from="381226323" to="464461053#2" />
  </person>
  <person id="ped_91" depart="282.38" type="adult">
    <walk from="381226323" to="464461053#2" />
  </person>
  <person id="ped_92" depart="282.51" type="adult">
    <walk from="381226323" to="464461053#2" />
  </person>
  <person id="ped_93" depart="283.20" type="adult">
    <walk from="381226323" to="464461053#2" />
  </person>
  <person id="ped_94" depart="284.70" type="adult">
    <walk from="381226323" to="464461053#2" />
  </person>
  <person id="ped_95" depart="291.79" type="elderly">
    <walk from="381226323" to="464461053#2" />
  </person>
  <person id="ped_96" depart="293.67" type="adult">
    <walk from="381226323" to="464461053#2" />
  </person>
  <person id="ped_97" depart="300.48" type="adult">
    <walk from="381226323" to="464461053#2" />
  </person>
  <person id="ped_98" depart="307.86" type="adult">
    <walk from="381226323" to="464461053#2" />
  </person>
  <person id="ped_99" depart="308.59" type="adult">
    <walk from="381226323" to="464461053#2" />
  </person>
  <person id="ped_100" depart="310.92" type="adult">
    <walk from="381226323" to="464461053#2" />
  </person>
  <person id="ped_101" depart="311.79" type="adult">
    <walk from="381226323" to="464461053#2" />
  </person>
  <person id="ped_102" depart="312.25" type="adult">
    <walk from="381226323" to="464461053#2" />
  </person>
  <person id="ped_103" depart="315.01" type="elderly">
    <walk from="381226323" to="464461053#2" />
  </person>
  <person id="ped_104" depart="320.16" type="adult">
    <walk from="381226323" to="464461053#2" />
  </person>
  <person id="ped_105" depart="322.36" type="adult">
    <walk from="381226323" to="464461053#2" />
  </person>
  <person id="ped_106" depart="327.22" type="adult">
    <walk from="381226323" to="464461053#2" />
  </person>
  <person id="ped_107" depart="329.57" type="adult">
    <walk from="381226323" to="464461053#2" />
  </person>
  <person id="ped_108" depart="329.85" type="elderly">
    <walk from="381226323" to="464461053#2" />
  </person>
  <person id="ped_109" depart="336.68" type="adult">
    <walk from="381226323" to="464461053#2" />
  </person>
  <person id="ped_110" depart="340.13" type="elderly">
    <walk from="381226323" to="464461053#2" />
  </person>
  <person id="ped_111" depart="344.16" type="adult">
    <walk from="381226323" to="464461053#2" />
  </person>
  <person id="ped_112" depart="346.93" type="adult">
    <walk from="381226323" to="464461053#2" />
  </person>
  <person id="ped_113" depart="352.42" type="adult">
    <walk from="381226323" to="464461053#2" />
  </person>
  <person id="ped_114" depart="361.13" type="adult">
    <walk from="381226323" to="464461053#2" />
  </person>
  <person id="ped_115" depart="361.98" type="elderly">
    <walk from="381226323" to="464461053#2" />
  </person>
  <person id="ped_116" depart="362.16" type="adult">
    <walk from="381226323" to="464461053#2" />
  </person>
  <person id="ped_117" depart="368.21" type="elderly">
    <walk from="381226323" to="464461053#2" />
  </person>
  <person id="ped_118" depart="371.22" type="adult">
    <walk from="381226323" to="464461053#2" />
  </person>
  <person id="ped_119" depart="371.51" type="adult">
    <walk from="381226323" to="464461053#2" />
  </person>
  <person id="ped_120" depart="376.23" type="adult">
    <walk from="381226323" to="464461053#2" />
  </person>
  <person id="ped_121" depart="376.72" type="adult">
    <walk from="381226323" to="464461053#2" />
  </person>
  <person id="ped_122" depart="377.94" type="adult">
    <walk from="381226323" to="464461053#2" />
  </person>
  <person id="ped_123" depart="379.15" type="adult">
    <walk from="381226323" to="464461053#2" />
  </person>
  <person id="ped_124" depart="379.21" type="elderly">
    <walk from="381226323" to="464461053#2" />
  </person>
  <person id="ped_125" depart="381.08" type="elderly">
    <walk from="381226323" to="464461053#2" />
  </person>
  <person id="ped_126" depart="382.46" type="adult">
    <walk from="381226323" to="464461053#2" />
  </person>
  <person id="ped_127" depart="385.14" type="adult">
    <walk from="381226323" to="464461053#2" />
  </person>
  <person id="ped_128" depart="386.70" type="adult">
    <walk from="381226323" to="464461053#2" />
  </person>
  <person id="ped_129" depart="387.39" type="adult">
    <walk from="381226323" to="464461053#2" />
  </person>
  <person id="ped_130" depart="393.65" type="adult">
    <walk from="381226323" to="464461053#2" />
  </person>
  <person id="ped_131" depart="398.31" type="adult">
    <walk from="381226323" to="464461053#2" />
  </person>
  <person id="ped_132" depart="401.77" type="adult">
    <walk from="381226323" to="464461053#2" />
  </person>
  <person id="ped_133" depart="404.62" type="elderly">
    <walk from="381226323" to="464461053#2" />
  </person>
  <person id="ped_134" depart="404.76" type="adult">
    <walk from="381226323" to="464461053#2" />
  </person>
  <person id="ped_135" depart="405.06" type="adult">
    <walk from="381226323" to="464461053#2" />
  </person>
  <person id="ped_136" depart="407.74" type="adult">
    <walk from="381226323" to="464461053#2" />
  </person>
  <person id="ped_137" depart="415.01" type="adult">
    <walk from="381226323" to="464461053#2" />
  </person>
  <person id="ped_138" depart="415.88" type="adult">
    <walk from="381226323" to="464461053#2" />
  </person>
  <person id="ped_139" depart="418.61" type="adult">
    <walk from="381226323" to="464461053#2" />
  </person>
  <person id="ped_140" depart="422.56" type="adult">
    <walk from="381226323" to="464461053#2" />
  </person>
  <person id="ped_141" depart="423.84" type="elderly">
    <walk from="381226323" to="464461053#2" />
  </person>
  <person id="ped_142" depart="426.74" type="adult">
    <walk from="381226323" to="464461053#2" />
  </person>
  <person id="ped_143" depart="438.95" type="elderly">
    <walk from="381226323" to="464461053#2" />
  </person>
  <person id="ped_144" depart="439.61" type="adult">
    <walk from="381226323" to="464461053#2" />
  </person>
  <person id="ped_145" depart="444.10" type="elderly">
    <walk from="381226323" to="464461053#2" />
  </person>
  <person id="ped_146" depart="457.46" type="adult">
    <walk from="381226323" to="464461053#2" />
  </person>
  <person id="ped_147" depart="471.74" type="adult">
    <walk from="381226323" to="464461053#2" />
  </person>
  <person id="ped_148" depart="473.87" type="adult">
    <walk from="381226323" to="464461053#2" />
  </person>
  <person id="ped_149" depart="477.09" type="adult">
    <walk from="381226323" to="464461053#2" />
  </person>
  <person id="ped_150" depart="479.31" type="adult">
    <walk from="381226323" to="464461053#2" />
  </person>
  <person id="ped_151" depart="490.61" type="adult">
    <walk from="381226323" to="464461053#2" />
  </person>
  <person id="ped_152" depart="490.80" type="elderly">
    <walk from="381226323" to="464461053#2" />
  </person>
  <person id="ped_153" depart="493.82" type="adult">
    <walk from="381226323" to="464461053#2" />
  </person>
  <person id="ped_154" depart="496.01" type="adult">
    <walk from="381226323" to="464461053#2" />
  </person>
  <person id="ped_155" depart="499.29" type="elderly">
    <walk from="381226323" to="464461053#2" />
  </person>
  <person id="ped_156" depart="500.06" type="adult">
    <walk from="381226323" to="464461053#2" />
  </person>
  <person id="ped_157" depart="503.35" type="adult">
    <walk from="381226323" to="464461053#2" />
  </person>
  <person id="ped_158" depart="507.65" type="elderly">
    <walk from="381226323" to="464461053#2" />
  </person>
  <person id="ped_159" depart="520.93" type="adult">
    <walk from="381226323" to="464461053#2" />
  </person>
  <person id="ped_160" depart="528.03" type="adult">
    <walk from="381226323" to="464461053#2" />
  </person>
  <person id="ped_161" depart="529.41" type="elderly">
    <walk from="381226323" to="464461053#2" />
  </person>
  <person id="ped_162" depart="531.27" type="adult">
    <walk from="381226323" to="464461053#2" />
  </person>
  <person id="ped_163" depart="537.25" type="adult">
    <walk from="381226323" to="464461053#2" />
  </person>
  <person id="ped_164" depart="546.74" type="adult">
    <walk from="381226323" to="464461053#2" />
  </person>
  <person id="ped_165" depart="547.05" type="elderly">
    <walk from="381226323" to="464461053#2" />
  </person>
  <person id="ped_166" depart="555.66" type="adult">
    <walk from="381226323" to="464461053#2" />
  </person>
  <person id="ped_167" depart="557.60" type="adult">
    <walk from="381226323" to="464461053#2" />
  </person>
  <person id="ped_168" depart="558.58" type="adult">
    <walk from="381226323" to="464461053#2" />
  </person>
  <person id="ped_169" depart="560.17" type="adult">
    <walk from="381226323" to="464461053#2" />
  </person>
  <person id="ped_170" depart="562.35" type="adult">
    <walk from="381226323" to="464461053#2" />
  </person>
  <person id="ped_171" depart="563.05" type="adult">
    <walk from="381226323" to="464461053#2" />
  </person>
  <person id="ped_172" depart="571.06" type="adult">
    <walk from="381226323" to="464461053#2" />
  </person>
  <person id="ped_173" depart="588.26" type="adult">
    <walk from="381226323" to="464461053#2" />
  </person>
  <person id="ped_174" depart="588.86" type="adult">
    <walk from="381226323" to="464461053#2" />
  </person>
  <person id="ped_175" depart="589.99" type="elderly">
    <walk from="381226323" to="464461053#2" />
  </person>
  <person id="ped_176" depart="593.54" type="elderly">
    <walk from="381226323" to="464461053#2" />
  </person>
  <person id="ped_177" depart="593.90" type="adult">
    <walk from="381226323" to="464461053#2" />
  </person>
  <person id="ped_178" depart="594.23" type="elderly">
    <walk from="381226323" to="464461053#2" />
  </person>
  <person id="ped_179" depart="597.12" type="adult">
    <walk from="381226323" to="464461053#2" />
  </person>
  <person id="ped_180" depart="599.50" type="adult">
    <walk from="381226323" to="464461053#2" />
  </person>
  <person id="ped_181" depart="601.43" type="elderly">
    <walk from="381226323" to="464461053#2" />
  </person>
  <person id="ped_182" depart="603.77" type="adult">
    <walk from="381226323" to="464461053#2" />
  </person>
  <person id="ped_183" depart="604.09" type="adult">
    <walk from="381226323" to="464461053#2" />
  </person>
  <person id="ped_184" depart="604.61" type="adult">
    <walk from="381226323" to="464461053#2" />
  </person>
  <person id="ped_185" depart="605.73" type="adult">
    <walk from="381226323" to="464461053#2" />
  </person>
  <person id="ped_186" depart="609.75" type="adult">
    <walk from="381226323" to="464461053#2" />
  </person>
  <person id="ped_187" depart="610.31" type="adult">
    <walk from="381226323" to="464461053#2" />
  </person>
  <person id="ped_188" depart="611.39" type="adult">
    <walk from="381226323" to="464461053#2" />
  </person>
  <person id="ped_189" depart="613.03" type="adult">
    <walk from="381226323" to="464461053#2" />
  </person>
  <person id="ped_190" depart="615.60" type="adult">
    <walk from="381226323" to="464461053#2" />
  </person>
  <person id="ped_191" depart="618.88" type="adult">
    <walk from="381226323" to="464461053#2" />
  </person>
  <person id="ped_192" depart="628.16" type="adult">
    <walk from="381226323" to="464461053#2" />
  </person>
  <person id="ped_193" depart="630.05" type="elderly">
    <walk from="381226323" to="464461053#2" />
  </person>
  <person id="ped_194" depart="631.36" type="adult">
    <walk from="381226323" to="464461053#2" />
  </person>
  <person id="ped_195" depart="632.29" type="adult">
    <walk from="381226323" to="464461053#2" />
  </person>
  <person id="ped_196" depart="632.31" type="elderly">
    <walk from="381226323" to="464461053#2" />
  </person>
  <person id="ped_197" depart="633.35" type="elderly">
    <walk from="381226323" to="464461053#2" />
  </person>
  <person id="ped_198" depart="642.46" type="elderly">
    <walk from="381226323" to="464461053#2" />
  </person>
  <person id="ped_199" depart="646.39" type="elderly">
    <walk from="381226323" to="464461053#2" />
  </person>
  <person id="ped_200" depart="649.14" type="adult">
    <walk from="381226323" to="464461053#2" />
  </person>
  <person id="ped_201" depart="651.35" type="adult">
    <walk from="381226323" to="464461053#2" />
  </person>
  <person id="ped_202" depart="653.91" type="elderly">
    <walk from="381226323" to="464461053#2" />
  </person>
  <person id="ped_203" depart="655.36" type="elderly">
    <walk from="381226323" to="464461053#2" />
  </person>
  <person id="ped_204" depart="655.39" type="elderly">
    <walk from="381226323" to="464461053#2" />
  </person>
  <person id="ped_205" depart="657.92" type="adult">
    <walk from="381226323" to="464461053#2" />
  </person>
  <person id="ped_206" depart="658.31" type="adult">
    <walk from="381226323" to="464461053#2" />
  </person>
  <person id="ped_207" depart="658.52" type="adult">
    <walk from="381226323" to="464461053#2" />
  </person>
  <person id="ped_208" depart="660.61" type="adult">
    <walk from="381226323" to="464461053#2" />
  </person>
  <person id="ped_209" depart="674.80" type="adult">
    <walk from="381226323" to="464461053#2" />
  </person>
  <person id="ped_210" depart="675.43" type="adult">
    <walk from="381226323" to="464461053#2" />
  </person>
  <person id="ped_211" depart="683.85" type="elderly">
    <walk from="381226323" to="464461053#2" />
  </person>
  <person id="ped_212" depart="684.20" type="elderly">
    <walk from="381226323" to="464461053#2" />
  </person>
  <person id="ped_213" depart="687.17" type="adult">
    <walk from="381226323" to="464461053#2" />
  </person>
  <person id="ped_214" depart="687.19" type="adult">
    <walk from="381226323" to="464461053#2" />
  </person>
  <person id="ped_215" depart="694.90" type="adult">
    <walk from="381226323" to="464461053#2" />
  </person>
  <person id="ped_216" depart="698.83" type="adult">
    <walk from="381226323" to="464461053#2" />
  </person>
  <person id="ped_217" depart="700.36" type="elderly">
    <walk from="381226323" to="464461053#2" />
  </person>
  <person id="ped_218" depart="702.82" type="adult">
    <walk from="381226323" to="464461053#2" />
  </person>
  <person id="ped_219" depart="712.17" type="adult">
    <walk from="381226323" to="464461053#2" />
  </person>
  <person id="ped_220" depart="712.31" type="adult">
    <walk from="381226323" to="464461053#2" />
  </person>
  <person id="ped_221" depart="712.48" type="adult">
    <walk from="381226323" to="464461053#2" />
  </person>
  <person id="ped_222" depart="714.14" type="adult">
    <walk from="381226323" to="464461053#2" />
  </person>
  <person id="ped_223" depart="717.33" type="adult">
    <walk from="381226323" to="464461053#2" />
  </person>
  <person id="ped_224" depart="730.93" type="adult">
    <walk from="381226323" to="464461053#2" />
  </person>
  <person id="ped_225" depart="741.17" type="adult">
    <walk from="381226323" to="464461053#2" />
  </person>
  <person id="ped_226" depart="748.64" type="adult">
    <walk from="381226323" to="464461053#2" />
  </person>
  <person id="ped_227" depart="748.69" type="adult">
    <walk from="381226323" to="464461053#2" />
  </person>
  <person id="ped_228" depart="750.89" type="adult">
    <walk from="381226323" to="464461053#2" />
  </person>
  <person id="ped_229" depart="751.60" type="adult">
    <walk from="381226323" to="464461053#2" />
  </person>
  <person id="ped_230" depart="755.84" type="adult">
    <walk from="381226323" to="464461053#2" />
  </person>
  <person id="ped_231" depart="756.63" type="adult">
    <walk from="381226323" to="464461053#2" />
  </person>
  <person id="ped_232" depart="758.39" type="elderly">
    <walk from="381226323" to="464461053#2" />
  </person>
  <person id="ped_233" depart="759.89" type="adult">
    <walk from="381226323" to="464461053#2" />
  </person>
  <person id="ped_234" depart="760.28" type="elderly">
    <walk from="381226323" to="464461053#2" />
  </person>
  <person id="ped_235" depart="762.44" type="adult">
    <walk from="381226323" to="464461053#2" />
  </person>
  <person id="ped_236" depart="765.31" type="adult">
    <walk from="381226323" to="464461053#2" />
  </person>
  <person id="ped_237" depart="767.16" type="elderly">
    <walk from="381226323" to="464461053#2" />
  </person>
  <person id="ped_238" depart="770.79" type="adult">
    <walk from="381226323" to="464461053#2" />
  </person>
  <person id="ped_239" depart="772.77" type="elderly">
    <walk from="381226323" to="464461053#2" />
  </person>
  <person id="ped_240" depart="773.97" type="adult">
    <walk from="381226323" to="464461053#2" />
  </person>
  <person id="ped_241" depart="775.94" type="adult">
    <walk from="381226323" to="464461053#2" />
  </person>
  <person id="ped_242" depart="778.09" type="adult">
    <walk from="381226323" to="464461053#2" />
  </person>
  <person id="ped_243" depart="781.91" type="adult">
    <walk from="381226323" to="464461053#2" />
  </person>
  <person id="ped_244" depart="788.93" type="adult">
    <walk from="381226323" to="464461053#2" />
  </person>
  <person id="ped_245" depart="791.06" type="adult">
    <walk from="381226323" to="464461053#2" />
  </person>
  <person id="ped_246" depart="791.14" type="adult">
    <walk from="381226323" to="464461053#2" />
  </person>
  <person id="ped_247" depart="792.07" type="adult">
    <walk from="381226323" to="464461053#2" />
  </person>
  <person id="ped_248" depart="792.87" type="adult">
    <walk from="381226323" to="464461053#2" />
  </person>
  <person id="ped_249" depart="798.15" type="adult">
    <walk from="381226323" to="464461053#2" />
  </person>
  <person id="ped_250" depart="800.61" type="adult">
    <walk from="381226323" to="464461053#2" />
  </person>
  <person id="ped_251" depart="801.14" type="adult">
    <walk from="381226323" to="464461053#2" />
  </person>
  <person id="ped_252" depart="802.17" type="elderly">
    <walk from="381226323" to="464461053#2" />
  </person>
  <person id="ped_253" depart="807.28" type="adult">
    <walk from="381226323" to="464461053#2" />
  </person>
  <person id="ped_254" depart="810.85" type="elderly">
    <walk from="381226323" to="464461053#2" />
  </person>
  <person id="ped_255" depart="815.29" type="adult">
    <walk from="381226323" to="464461053#2" />
  </person>
  <person id="ped_256" depart="817.81" type="elderly">
    <walk from="381226323" to="464461053#2" />
  </person>
  <person id="ped_257" depart="820.68" type="adult">
    <walk from="381226323" to="464461053#2" />
  </person>
  <person id="ped_258" depart="825.45" type="adult">
    <walk from="381226323" to="464461053#2" />
  </person>
  <person id="ped_259" depart="828.54" type="adult">
    <walk from="381226323" to="464461053#2" />
  </person>
  <person id="ped_260" depart="828.82" type="elderly">
    <walk from="381226323" to="464461053#2" />
  </person>
  <person id="ped_261" depart="835.73" type="adult">
    <walk from="381226323" to="464461053#2" />
  </person>
  <person id="ped_262" depart="838.91" type="adult">
    <walk from="381226323" to="464461053#2" />
  </person>
  <person id="ped_263" depart="839.98" type="adult">
    <walk from="381226323" to="464461053#2" />
  </person>
  <person id="ped_264" depart="841.03" type="adult">
    <walk from="381226323" to="464461053#2" />
  </person>