<?xml version="1.0" encoding="UTF-8"?>

<!-- generated on 2026-04-17 02:59:02.688801 by Eclipse SUMO randomTrips.py v1.26.0
<configuration>
    <net-file value="/Users/junlee/Desktop/2026-1/js/result/tradeoff_pet_top12_seed12_60min_20260417_025716/sumo_nets/cw_6511/network.net.xml"/>
    <output-trip-file value="/Users/junlee/Desktop/2026-1/js/result/tradeoff_pet_top12_seed12_60min_20260417_025716/sumo_nets/cw_6511/routes_seed52.trips.xml"/>
    <route-file value="/Users/junlee/Desktop/2026-1/js/result/tradeoff_pet_top12_seed12_60min_20260417_025716/sumo_nets/cw_6511/routes_seed52.rou.xml"/>
    <vehicle-class value="passenger"/>
    <seed value="52"/>
    <period value="2.4271386637157075"/>
</configuration>
-->

<!-- generated on 2026-04-17T02:59:02.656204+09:00 by Eclipse SUMO duarouter 1.26.0
<duarouterConfiguration xmlns:xsi="http://www.w3.org/2001/XMLSchema-instance" xsi:noNamespaceSchemaLocation="http://sumo.dlr.de/xsd/duarouterConfiguration.xsd">

    <input>
        <net-file value="/Users/junlee/Desktop/2026-1/js/result/tradeoff_pet_top12_seed12_60min_20260417_025716/sumo_nets/cw_6511/network.net.xml"/>
        <route-files value="/Users/junlee/Desktop/2026-1/js/result/tradeoff_pet_top12_seed12_60min_20260417_025716/sumo_nets/cw_6511/routes_seed52.trips.xml"/>
    </input>

    <output>
        <output-file value="/Users/junlee/Desktop/2026-1/js/result/tradeoff_pet_top12_seed12_60min_20260417_025716/sumo_nets/cw_6511/routes_seed52.rou.xml"/>
        <alternatives-output value="NUL"/>
    </output>

    <time>
        <begin value="0.0"/>
        <end value="3600.0"/>
    </time>

    <report>
        <no-warnings value="true"/>
        <ignore-errors value="true"/>
        <no-step-log value="true"/>
    </report>

</duarouterConfiguration>
-->

<routes xmlns:xsi="http://www.w3.org/2001/XMLSchema-instance" xsi:noNamespaceSchemaLocation="http://sumo.dlr.de/xsd/routes_file.xsd">
    <vType id="passenger" vClass="passenger"/>
    <vehicle id="0" type="passenger" depart="0.00">
        <route edges="781985786#5 781985790#0 781985790#1 -464461060 270279684#1 347237859#2 198691061#0 198691061#1 198691061#2"/>
    </vehicle>
    <vehicle id="1" type="passenger" depart="2.43">
        <route edges="781985786#2 913570919 913570918 -464461053#2 -464461053#1 -464461063 -273028084#5"/>
    </vehicle>
    <vehicle id="2" type="passenger" depart="4.85">
        <route edges="913570919 273024752 781985786#4 781985786#5 781985790#0 781985790#1 -464461060 270279684#1 347237859#2 198691061#0 198691061#1 198691061#2 198691061#3"/>
    </vehicle>
    <vehicle id="3" type="passenger" depart="7.28">
        <route edges="-464461053#0 -775222468#4 -277257944#1 -273028084#5 -273028084#4 -273028084#2 -273028084#1 -273028084#0 -913570918 273024752 781985786#4 -270279684#1 464461060 -781985790#1"/>
    </vehicle>
    <vehicle id="4" type="passenger" depart="9.71">
        <route edges="273028084#2 273028084#4 273028084#5 464461063 464461053#1 464461053#2 -913570918 273024752 781985786#4 781985786#5 781985790#0 781985790#1 -464461060 270279684#1 347237859#2 198691061#0 198691061#1 198691061#2 -198691068"/>
    </vehicle>
    <vehicle id="5" type="passenger" depart="12.14">
        <route edges="198691061#0 198691061#1 198691061#2 -198691068 -198691090 -198691062#0"/>
    </vehicle>
    <vehicle id="6" type="passenger" depart="14.56">
        <route edges="-270279684#1 464461060 -270279686#1 -270279686#0 620607766#3 775222468#0 775222468#1 775222468#2 -273028084#7 -273028084#6"/>
    </vehicle>
    <vehicle id="7" type="passenger" depart="16.99">
        <route edges="-464461057#3 -464461057#2 -464461057#1 381226323 -464461053#1 -464461063"/>
    </vehicle>
    <vehicle id="8" type="passenger" depart="19.42">
        <route edges="464461057#2 464461057#3 781985786#2 781985786#3 781985786#4 781985786#5 781985790#0 781985790#1 -464461060 270279684#1 347237859#2 198691061#0 198691061#1 198691061#2 198691061#3"/>
    </vehicle>
    <vehicle id="9" type="passenger" depart="21.84">
        <route edges="775222468#1 775222468#2 -273028084#7 -273028084#6 464461063 464461053#1 -381226323 464461057#1 464461057#2 464461057#3 781985786#2"/>
    </vehicle>
    <vehicle id="10" type="passenger" depart="24.27">
        <route edges="777422408 775222468#1 775222468#2 -273028084#7 -273028084#6 -273028084#5 -273028084#4 -273028084#2 -273028084#1 -273028084#0 -913570918 273024752 781985786#4 781985786#5 781985790#0"/>
    </vehicle>
    <vehicle id="11" type="passenger" depart="26.70">
        <route edges="775222468#4 464461053#0 464461053#1 464461053#2 -913570918 273024752 781985786#4 781985786#5 781985790#0 781985790#1 -464461060 270279684#1 347237859#2 198691061#0 198691082#3 198691092#3"/>
    </vehicle>
    <vehicle id="12" type="passenger" depart="29.13">
        <route edges="-273028084#6 -273028084#5 -273028084#4 -273028084#2 -273028084#1 -273028084#0 -913570918 273024752 781985786#4 781985786#5 781985790#0 781985790#1 -464461060 270279684#1 347237859#2 198691061#0 198691061#1 198691061#2 -198691068 198691092#1 198691091"/>
    </vehicle>
    <vehicle id="13" type="passenger" depart="31.55">
        <route edges="-270279686#1 -270279686#0 620607766#3 775222468#0 775222468#1 775222468#2 775222468#3 -277257944#1"/>
    </vehicle>
    <vehicle id="14" type="passenger" depart="33.98">
        <route edges="347237859#1 -270279684#1 464461060 -270279686#1 -270279686#0 620607766#3"/>
    </vehicle>
    <vehicle id="15" type="passenger" depart="36.41">
        <route edges="273028084#6 273028084#7 775222468#3 -277257944#1 -273028084#5 -273028084#4 -273028084#2 -273028084#1 -273028084#0 -913570918 273024752 781985786#4 781985786#5 781985790#0 781985790#1 -464461060 270279684#1 347237859#2 198691061#0 198691061#1 198691061#2 -198691068 -198691090 198691062#1"/>
    </vehicle>
    <vehicle id="16" type="passenger" depart="38.83">
        <route edges="-198691071#0 198691061#2 -198691068 -198691090 -198691055"/>
    </vehicle>
    <vehicle id="17" type="passenger" depart="41.26">
        <route edges="273028084#5 464461063 464461053#1 464461053#2 -913570918 273024752 781985786#4 781985786#5 781985790#0 781985790#1 -464461060 270279684#1 347237859#2 198691061#0 198691061#1 198691061#2 -198691068 198691092#1"/>
    </vehicle>
    <vehicle id="18" type="passenger" depart="43.69">
        <route edges="-273028084#4 -273028084#2 -273028084#1 -273028084#0 -913570918 273024752 781985786#4 781985786#5 781985786#6 1109231376 620607766#0 620607766#1 620607766#2 620607766#3 775222468#0 775222468#1 775222468#2 775222468#3 -277257944#1"/>
    </vehicle>
    <vehicle id="19" type="passenger" depart="46.12">
        <route edges="-273028084#4 -273028084#2 -273028084#1 -273028084#0 -464461053#2 -381226323 464461057#1 464461057#2 464461057#3 781985786#2 913570919 913570918 273028084#0 273028084#1"/>
    </vehicle>
    <vehicle id="20" type="passenger" depart="48.54">
        <route edges="464461053#1 464461053#2 273028084#0 273028084#1 273028084#2 273028084#4 273028084#5 464461063"/>
    </vehicle>
    <vehicle id="21" type="passenger" depart="50.97">
        <route edges="-273028084#7 -273028084#6 -273028084#5 -273028084#4 -273028084#2 -273028084#1 -273028084#0 -913570918 273024752 781985786#4 781985786#5 781985790#0 781985790#1 781985790#3"/>
    </vehicle>
    <vehicle id="22" type="passenger" depart="53.40">
        <route edges="775222468#0 775222468#1 775222468#2 -273028084#7 -273028084#6 -273028084#5 -273028084#4 -273028084#2 -273028084#1 -273028084#0 -913570918 273024752 781985786#4 781985786#5 781985786#6 1109231376 620607766#0 620607766#1 620607766#2 620607766#3"/>
    </vehicle>
    <vehicle id="23" type="passenger" depart="55.82">
        <route edges="620607766#0 620607766#1 620607766#2 620607766#3 775222468#0 775222468#1 775222468#2 -273028084#7 -273028084#6 464461063 464461053#1 -381226323 -464461057#0"/>
    </vehicle>
    <vehicle id="24" type="passenger" depart="58.25">
        <route edges="347237859#0 347237859#1 -270279684#1 464461060 -270279686#1 -270279686#0 620607766#3 775222468#0 775222468#1 775222468#2 775222468#3"/>
    </vehicle>
    <vehicle id="25" type="passenger" depart="60.68">
        <route edges="464461053#2 273028084#0 273028084#1 273028084#2 273028084#4 273028084#5 464461063 464461053#1 -381226323 464461057#1 464461057#2 464461057#3 781985786#2"/>
    </vehicle>
    <vehicle id="26" type="passenger" depart="63.11">
        <route edges="-270279684#1 464461060 -781985790#1 -781985790#0 781985786#6 1109231376 620607766#0 620607766#1 620607766#2 270279686#0 270279686#1 -464461060 270279684#1 347237859#2 198691061#0 198691061#1 198691071#0 322977650"/>
    </vehicle>
    <vehicle id="27" type="passenger" depart="65.53">
        <route edges="-273028084#6 277257944#1 775222468#4 464461053#0"/>
    </vehicle>
    <vehicle id="28" type="passenger" depart="67.96">
        <route edges="781985786#0 781985786#1 781985786#2 781985786#3 781985786#4 781985786#5 781985786#6 1109231376"/>
    </vehicle>
    <vehicle id="29" type="passenger" depart="70.39">
        <route edges="464461053#0 464461053#1 464461053#2 273028084#0 273028084#1 273028084#2"/>
    </vehicle>
    <vehicle id="30" type="passenger" depart="72.81">
        <route edges="-273028084#7 -273028084#6 -273028084#5 -273028084#4 -273028084#2 -273028084#1 -273028084#0 -913570918 273024752 781985786#4 781985786#5 781985790#0 781985790#1 -464461060 270279684#1 347237859#2 198691061#0 198691061#1 198691071#0"/>
    </vehicle>
    <vehicle id="31" type="passenger" depart="75.24">
        <route edges="464461060 -270279686#1 -270279686#0 620607766#3 775222468#0 775222468#1 775222468#2 -273028084#7 -273028084#6 -273028084#5"/>
    </vehicle>
    <vehicle id="32" type="passenger" depart="77.67">
        <route edges="347237859#0 347237859#1 -270279684#1 464461060 -270279686#1 -270279686#0 620607766#3 775222468#0 775222468#1 775222468#2 -273028084#7 -273028084#6 464461063 464461053#1 -381226323 464461057#1 464461057#2 464461057#3 781985786#2 913570919"/>
    </vehicle>
    <vehicle id="33" type="passenger" depart="80.10">
        <route edges="-781985790#3 -270279686#1 -270279686#0 620607766#3 775222468#0 775222468#1 775222468#2 -273028084#7 -273028084#6 464461063 -464461053#0"/>
    </vehicle>
    <vehicle id="34" type="passenger" depart="82.52">
        <route edges="-270279686#0 620607766#3 775222468#0 775222468#1 775222468#2 -273028084#7 -273028084#6 -273028084#5 -273028084#4 -273028084#2 -273028084#1 -273028084#0 -913570918 273024752 781985786#4 -270279684#1 464461060"/>
    </vehicle>
    <vehicle id="35" type="passenger" depart="84.95">
        <route edges="775222468#4 464461053#0 -464461063 273028084#6 273028084#7 775222468#3"/>
    </vehicle>
    <vehicle id="36" type="passenger" depart="87.38">
        <route edges="-464461057#2 -464461057#1 381226323 464461053#2 -913570918 273024752 781985786#4 781985786#5 781985790#0 781985790#1 -464461060 270279684#1 347237859#2 347237859#3 347237859#4"/>
    </vehicle>
    <vehicle id="37" type="passenger" depart="89.80">
        <route edges="-781985790#3 -270279686#1 -270279686#0 620607766#3 775222468#0 775222468#1 775222468#2 775222468#3 -277257944#1"/>
    </vehicle>
    <vehicle id="38" type="passenger" depart="92.23">
        <route edges="464461060 -781985790#1 -781985790#0 781985786#6 1109231376 620607766#0 620607766#1 620607766#2 270279686#0 270279686#1 -464461060 270279684#1 347237859#2"/>
    </vehicle>
    <vehicle id="39" type="passenger" depart="94.66">
        <route edges="218915133#0 218915133#1 347237859#0 347237859#1 -270279684#1 464461060 -270279686#1 -270279686#0 620607766#3 775222468#0 775222468#1 775222468#2 775222468#3 -277257944#1 273028084#6 273028084#7"/>
    </vehicle>
    <vehicle id="40" type="passenger" depart="97.09">
        <route edges="270279684#1 781985786#5 781985786#6 1109231376 620607766#0 620607766#1 620607766#2 620607766#3 775222468#0 775222468#1 775222468#2"/>
    </vehicle>
    <vehicle id="41" type="passenger" depart="99.51">
        <route edges="347237859#1 -270279684#1 464461060 -781985790#1 -781985790#0 781985786#6 1109231376 620607766#0 620607766#1 620607766#2 270279686#0 270279686#1 -464461060"/>
    </vehicle>
    <vehicle id="42" type="passenger" depart="101.94">
        <route edges="273028084#6 273028084#7 775222468#3 -277257944#1 -273028084#5 -273028084#4 -273028084#2 -273028084#1 -273028084#0 -913570918 273024752 781985786#4 781985786#5 781985790#0 781985790#1 -464461060 270279684#1 347237859#2 198691061#0 198691061#1 -198691091 -198691072#1 -198691062#1 198691090"/>
    </vehicle>
    <vehicle id="43" type="passenger" depart="104.37">
        <route edges="781985786#3 781985786#4 781985786#5 781985790#0 781985790#1 -270279686#1"/>
    </vehicle>
    <vehicle id="44" type="passenger" depart="106.79">
        <route edges="781985786#0 781985786#1 781985786#2 913570919 913570918 273028084#0 273028084#1 273028084#2"/>
    </vehicle>
    <vehicle id="45" type="passenger" depart="109.22">
        <route edges="620607766#0 620607766#1 620607766#2 620607766#3 775222468#0 775222468#1 775222468#2 -273028084#7 -273028084#6 277257944#1 -775222468#3"/>
    </vehicle>
    <vehicle id="46" type="passenger" depart="111.65">
        <route edges="-464461063 -273028084#5 -273028084#4 -273028084#2 -273028084#1 -273028084#0 -913570918 273024752 781985786#4 781985786#5 781985790#0 781985790#1 -270279686#1"/>
    </vehicle>
    <vehicle id="47" type="passenger" depart="114.08">
        <route edges="-913570918 273024752 781985786#4 -270279684#1"/>
    </vehicle>
    <vehicle id="48" type="passenger" depart="116.50">
        <route edges="347237859#1 -270279684#1 464461060 -270279686#1 -270279686#0 620607766#3 775222468#0 775222468#1"/>
    </vehicle>
    <vehicle id="49" type="passenger" depart="118.93">
        <route edges="-198691090 198691062#1 198691072#1 198691091 198691061#2 -198691068 198691092#1"/>
    </vehicle>
    <vehicle id="50" type="passenger" depart="121.36">
        <route edges="464461057#3 781985786#2 913570919 913570918 273028084#0 273028084#1 273028084#2 273028084#4 273028084#5 464461063"/>
    </vehicle>
    <vehicle id="51" type="passenger" depart="123.78">
        <route edges="347237859#0 347237859#1 347237859#2 198691061#0 198691061#1 198691061#2 -198691068 198691092#1 198691091"/>
    </vehicle>
    <vehicle id="52" type="passenger" depart="126.21">
        <route edges="913570919 913570918 -464461053#2 -381226323 464461057#1 464461057#2 464461057#3 781985786#2 781985786#3"/>
    </vehicle>
    <vehicle id="53" type="passenger" depart="128.64">
        <route edges="781985790#1 -270279686#1 -270279686#0 620607766#3 775222468#0 775222468#1 775222468#2 -273028084#7 -273028084#6 -273028084#5 -273028084#4 -273028084#2 -273028084#1 -273028084#0"/>
    </vehicle>
    <vehicle id="54" type="passenger" depart="131.07">
        <route edges="270279684#1 781985786#5 781985790#0 781985790#1 -464461060"/>
    </vehicle>
    <vehicle id="55" type="passenger" depart="133.49">
        <route edges="-464461063 273028084#6 273028084#7 775222468#3 -277257944#1 464461063"/>
    </vehicle>
    <vehicle id="56" type="passenger" depart="135.92">
        <route edges="464461060 -781985790#1 -781985790#0 781985786#6 1109231376 620607766#0 620607766#1 620607766#2 270279686#0 270279686#1 -464461060 270279684#1 347237859#2 198691061#0 198691061#1 198691061#2 -198691068 -198691090 -198691062#0"/>
    </vehicle>
    <vehicle id="57" type="passenger" depart="138.35">
        <route edges="-273028084#4 -273028084#2 -273028084#1 -273028084#0 -913570918 273024752 781985786#4 781985786#5 781985786#6 1109231376 620607766#0 620607766#1 620607766#2 620607766#3 775222468#0 775222468#1 775222468#2 775222468#3 775222468#4 464461053#0"/>
    </vehicle>
    <vehicle id="58" type="passenger" depart="140.77">
        <route edges="198691063#0 347237859#1 -270279684#1 464461060 -270279686#1 -270279686#0 620607766#3 775222468#0 775222468#1 775222468#2 -273028084#7 -273028084#6 -273028084#5"/>
    </vehicle>
    <vehicle id="59" type="passenger" depart="143.20">
        <route edges="781985786#6 1109231376 620607766#0 620607766#1 620607766#2 620607766#3 775222468#0 -777422408"/>
    </vehicle>
    <vehicle id="60" type="passenger" depart="145.63">
        <route edges="-270279684#1 464461060 -781985790#1 -781985790#0 781985786#6 1109231376 620607766#0 620607766#1 620607766#2 270279686#0 270279686#1 -464461060 270279684#1 347237859#2 198691061#0 198691061#1 198691061#2 198691061#3"/>
    </vehicle>
    <vehicle id="61" type="passenger" depart="148.06">
        <route edges="464461057#0 464461057#1 464461057#2 464461057#3 781985786#2 781985786#3 781985786#4 781985786#5 781985790#0 781985790#1 -464461060 270279684#1 347237859#2 198691061#0 198691061#1 -198691091"/>
    </vehicle>
    <vehicle id="62" type="passenger" depart="150.48">
        <route edges="198691082#0 198691082#1 198691063#0 347237859#1 -270279684#1 464461060 -270279686#1 -270279686#0 620607766#3 775222468#0 775222468#1 775222468#2 -273028084#7 -273028084#6 464461063 464461053#1 -381226323 464461057#1 464461057#2 464461057#3 781985786#2"/>
    </vehicle>
    <vehicle id="63" type="passenger" depart="152.91">
        <route edges="781985786#0 781985786#1 781985786#2 781985786#3 781985786#4 781985786#5 781985786#6 1109231376 620607766#0 620607766#1 620607766#2"/>
    </vehicle>
    <vehicle id="64" type="passenger" depart="155.34">
        <route edges="273028084#5 464461063 464461053#1 464461053#2 -913570918 273024752 781985786#4 781985786#5 781985790#0 781985790#1 -270279686#1 -270279686#0"/>
    </vehicle>
    <vehicle id="65" type="passenger" depart="157.76">
        <route edges="913570918 273028084#0 273028084#1 273028084#2 273028084#4 273028084#5 273028084#6 273028084#7 -775222468#2"/>
    </vehicle>
    <vehicle id="66" type="passenger" depart="160.19">
        <route edges="-781985790#0 781985786#6 1109231376 620607766#0 620607766#1 620607766#2 270279686#0 270279686#1 -464461060 270279684#1 347237859#2 198691061#0 198691082#3"/>
    </vehicle>
    <vehicle id="67" type="passenger" depart="162.62">
        <route edges="464461057#3 781985786#2 913570919 913570918 273028084#0 273028084#1 273028084#2 273028084#4 273028084#5 273028084#6 273028084#7"/>
    </vehicle>
    <vehicle id="68" type="passenger" depart="165.05">
        <route edges="-775222468#3 -273028084#7 -273028084#6 464461063 464461053#1 464461053#2 273028084#0 273028084#1 273028084#2 273028084#4 273028084#5 273028084#6"/>
    </vehicle>
    <vehicle id="69" type="passenger" depart="167.47">
        <route edges="-775222468#3 -273028084#7 -273028084#6 -273028084#5 -273028084#4 -273028084#2 -273028084#1 -273028084#0 -913570918 273024752 781985786#4 781985786#5 781985786#6 1109231376 620607766#0"/>
    </vehicle>
    <vehicle id="70" type="passenger" depart="169.90">
        <route edges="781985786#2 781985786#3 781985786#4 781985786#5 781985790#0 781985790#1 -464461060 270279684#1 347237859#2 198691061#0 198691061#1 198691071#0 198691071#1"/>
    </vehicle>
    <vehicle id="71" type="passenger" depart="172.33">
        <route edges="198691092#1 198691091 198691071#0 198691071#1"/>
    </vehicle>
    <vehicle id="72" type="passenger" depart="174.75">
        <route edges="-464461060 270279684#1 781985786#5 781985786#6 1109231376 620607766#0 620607766#1 620607766#2 620607766#3 775222468#0 775222468#1 775222468#2 775222468#3 -277257944#1 273028084#6 273028084#7 -775222468#2"/>
    </vehicle>
    <vehicle id="73" type="passenger" depart="177.18">
        <route edges="464461057#3 781985786#2 781985786#3 781985786#4 781985786#5 781985786#6 1109231376 620607766#0 620607766#1 620607766#2 620607766#3 775222468#0 775222468#1 775222468#2 -273028084#7"/>
    </vehicle>
    <vehicle id="74" type="passenger" depart="179.61">
        <route edges="-277257944#1 464461063 464461053#1 -381226323 464461057#1 464461057#2 464461057#3 781985786#2"/>
    </vehicle>
    <vehicle id="75" type="passenger" depart="182.04">
        <route edges="-781985790#0 781985786#6 1109231376 620607766#0 620607766#1 620607766#2 270279686#0 270279686#1 -464461060 270279684#1 781985786#5"/>
    </vehicle>
    <vehicle id="76" type="passenger" depart="184.46">
        <route edges="-464461057#1 381226323 464461053#2 -913570918 273024752 781985786#4 781985786#5 781985790#0 781985790#1 -464461060 270279684#1 347237859#2 198691061#0"/>
    </vehicle>
    <vehicle id="77" type="passenger" depart="186.89">
        <route edges="781985790#0"/>
    </vehicle>
    <vehicle id="78" type="passenger" depart="189.32">
        <route edges="218915133#1 347237859#0 347237859#1 -270279684#1 464461060 -270279686#1 -270279686#0 620607766#3 775222468#0 775222468#1 775222468#2 -273028084#7 -273028084#6 464461063 464461053#1 -381226323 464461057#1 464461057#2 464461057#3 781985786#2 913570919 913570918"/>
    </vehicle>
    <vehicle id="79" type="passenger" depart="191.74">
        <route edges="775222468#1 775222468#2 -273028084#7 -273028084#6 -273028084#5 -273028084#4 -273028084#2 -273028084#1 -273028084#0 -913570918 273024752 781985786#4 781985786#5 781985786#6 1109231376 783692390"/>
    </vehicle>
    <vehicle id="80" type="passenger" depart="194.17">
        <route edges="270279686#0 270279686#1 -464461060 270279684#1 781985786#5 781985790#0 781985790#1 -270279686#1 -270279686#0"/>
    </vehicle>
    <vehicle id="81" type="passenger" depart="196.60">
        <route edges="781985786#6 1109231376 620607766#0 620607766#1 620607766#2 270279686#0 270279686#1 -464461060 270279684#1 347237859#2 347237859#3 347237859#4"/>
    </vehicle>
    <vehicle id="82" type="passenger" depart="199.03">
        <route edges="198691061#0 198691061#1 198691061#2 -198691068 198691092#1 198691091"/>
    </vehicle>
    <vehicle id="83" type="passenger" depart="201.45">
        <route edges="-273028084#4 -273028084#2 -273028084#1 -273028084#0 -913570918 273024752 781985786#4 781985786#5 781985786#6 1109231376 620607766#0 620607766#1 620607766#2 620607766#3 775222468#0 775222468#1 775222468#2 -273028084#7 -273028084#6 464461063"/>
    </vehicle>
    <vehicle id="84" type="passenger" depart="203.88">
        <route edges="273028084#5 464461063 -464461053#0 -775222468#4"/>
    </vehicle>
    <vehicle id="85" type="passenger" depart="206.31">
        <route edges="273028084#1 273028084#2 273028084#4 273028084#5 464461063 464461053#1 464461053#2 -913570918 273024752 781985786#4 781985786#5 781985786#6 1109231376 620607766#0"/>
    </vehicle>
    <vehicle id="86" type="passenger" depart="208.73">
        <route edges="218915133#0 218915133#1 347237859#0 347237859#1 347237859#2 198691061#0 198691061#1 198691061#2 -198691068 -198691090"/>
    </vehicle>
    <vehicle id="87" type="passenger" depart="211.16">
        <route edges="1109231376 620607766#0"/>
    </vehicle>
    <vehicle id="88" type="passenger" depart="213.59">
        <route edges="620607766#3 775222468#0 775222468#1 775222468#2 -273028084#7 -273028084#6 -273028084#5 -273028084#4 -273028084#2 -273028084#1 -273028084#0 -913570918 273024752 781985786#4 781985786#5 781985790#0 781985790#1 -464461060 270279684#1 347237859#2 198691061#0 198691061#1 198691061#2 -198691068 -198691090 -198691062#0"/>
    </vehicle>
    <vehicle id="89" type="passenger" depart="216.02">
        <route edges="-270279686#1 -270279686#0 620607766#3 775222468#0 775222468#1 775222468#2 775222468#3 -277257944#1 273028084#6"/>
    </vehicle>
    <vehicle id="90" type="passenger" depart="218.44">
        <route edges="781985786#3 781985786#4 781985786#5 781985786#6 1109231376 620607766#0 620607766#1 620607766#2 620607766#3 775222468#0 775222468#1 775222468#2 775222468#3 -277257944#1 273028084#6"/>
    </vehicle>
    <vehicle id="91" type="passenger" depart="220.87">
        <route edges="-913570918 273024752 781985786#4 781985786#5 781985786#6 1109231376 620607766#0 620607766#1 620607766#2 620607766#3 775222468#0 775222468#1 775222468#2 -273028084#7 -273028084#6 464461063 464461053#1 -381226323 464461057#1"/>
    </vehicle>
    <vehicle id="92" type="passenger" depart="223.30">
        <route edges="781985786#1 781985786#2 781985786#3 781985786#4 781985786#5 781985790#0 781985790#1 -464461060 270279684#1 347237859#2 198691061#0 198691061#1 -198691091 -198691072#1"/>
    </vehicle>
    <vehicle id="93" type="passenger" depart="225.72">
        <route edges="-198691071#1 -198691071#0 -198691091 198691092#2 198691065"/>
    </vehicle>
    <vehicle id="94" type="passenger" depart="228.15">
        <route edges="198691082#1 198691063#0 347237859#1 -270279684#1 464461060 -270279686#1 -270279686#0 620607766#3 775222468#0 775222468#1 775222468#2 -273028084#7 -273028084#6 -273028084#5"/>
    </vehicle>
    <vehicle id="95" type="passenger" depart="230.58">
        <route edges="-322977650 -198691071#0"/>
    </vehicle>
    <vehicle id="96" type="passenger" depart="233.01">
        <route edges="270279684#1 347237859#2 198691061#0 198691061#1 198691071#0 198691071#1"/>
    </vehicle>
    <vehicle id="97" type="passenger" depart="235.43">
        <route edges="-781985790#3 -270279686#1 -270279686#0 620607766#3 775222468#0 775222468#1 775222468#2 -273028084#7 -273028084#6 464461063 464461053#1 -381226323 464461057#1 464461057#2 464461057#3"/>
    </vehicle>
    <vehicle id="98" type="passenger" depart="237.86">
        <route edges="-913570918 273024752 781985786#4 781985786#5 781985790#0 781985790#1 -464461060 270279684#1 347237859#2 198691061#0 198691061#1 198691071#0 198691071#1"/>
    </vehicle>
    <vehicle id="99" type="passenger" depart="240.29">
        <route edges="-198691071#0 -198691091 -198691072#1 -198691062#1 -198691062#0"/>
    </vehicle>
    <vehicle id="100" type="passenger" depart="242.71">
        <route edges="464461057#0 464461057#1 464461057#2 464461057#3 781985786#2 781985786#3 781985786#4 781985786#5 781985790#0 781985790#1 -464461060 270279684#1 347237859#2 198691061#0 198691061#1 198691061#2"/>
    </vehicle>
    <vehicle id="101" type="passenger" depart="245.14">
        <route edges="-464461057#2 -464461057#1 381226323 464461053#2 -913570918 273024752 781985786#4 781985786#5 781985790#0 781985790#1 -464461060 270279684#1 347237859#2 198691061#0 198691082#3 198691065"/>
    </vehicle>
    <vehicle id="102" type="passenger" depart="247.57">
        <route edges="381226323 464461053#2 -913570918 273024752 781985786#4 781985786#5 781985790#0 781985790#1 -270279686#1"/>
    </vehicle>
    <vehicle id="103" type="passenger" depart="250.00">
        <route edges="464461060 -781985790#1 -781985790#0 781985786#6 1109231376 783692390"/>
    </vehicle>
    <vehicle id="104" type="passenger" depart="252.42">
        <route edges="777422408 775222468#1 775222468#2 -273028084#7 -273028084#6"/>
    </vehicle>
    <vehicle id="105" type="passenger" depart="254.85">
        <route edges="270279686#0 270279686#1 -464461060 270279684#1 781985786#5 781985790#0"/>
    </vehicle>
    <vehicle id="106" type="passenger" depart="257.28">
        <route edges="273028084#2 273028084#4 273028084#5 464461063 464461053#1 464461053#2 -913570918 273024752 781985786#4 781985786#5 781985790#0 781985790#1 781985790#3"/>
    </vehicle>
    <vehicle id="107" type="passenger" depart="259.70">
        <route edges="620607766#1 620607766#2 270279686#0 270279686#1 -464461060 270279684#1 347237859#2 198691061#0 198691061#1 198691071#0 198691071#1"/>
    </vehicle>
    <vehicle id="108" type="passenger" depart="262.13">
        <route edges="270279686#0 270279686#1 -781985790#1 -781985790#0 781985786#6 1109231376 620607766#0 620607766#1 620607766#2 620607766#3 775222468#0 775222468#1 775222468#2 -273028084#7 -273028084#6 464461063 464461053#1 -381226323"/>
    </vehicle>
    <vehicle id="109" type="passenger" depart="264.56">
        <route edges="273028084#7 775222468#3 -277257944#1 -273028084#5 -273028084#4 -273028084#2"/>
    </vehicle>
    <vehicle id="110" type="passenger" depart="266.99">
        <route edges="381226323 464461053#2 -913570918 273024752 781985786#4 781985786#5 781985786#6 1109231376 620607766#0 620607766#1 620607766#2"/>
    </vehicle>
    <vehicle id="111" type="passenger" depart="269.41">
        <route edges="-273028084#1 -273028084#0 -913570918 273024752 781985786#4 781985786#5 781985790#0 781985790#1 -464461060 270279684#1 347237859#2 198691061#0 198691061#1 198691061#2"/>
    </vehicle>
    <vehicle id="112" type="passenger" depart="271.84">
        <route edges="-277257944#1 -273028084#5 -273028084#4 -273028084#2 -273028084#1 -273028084#0 -913570918 273024752 781985786#4 781985786#5 781985790#0 781985790#1 -464461060 270279684#1 347237859#2 198691061#0 198691061#1 198691061#2 -198691068 198691092#1"/>
    </vehicle>
    <vehicle id="113" type="passenger" depart="274.27">
        <route edges="-464461060 270279684#1 781985786#5 781985786#6"/>
    </vehicle>
    <vehicle id="114" type="passenger" depart="276.69">
        <route edges="620607766#2 270279686#0 270279686#1 -464461060 270279684#1 347237859#2 198691061#0 198691061#1 -198691091 -198691072#1"/>
    </vehicle>
    <vehicle id="115" type="passenger" depart="279.12">
        <route edges="-464461063 -273028084#5 -273028084#4 -273028084#2 -273028084#1 -273028084#0 -913570918 273024752 781985786#4 781985786#5 781985790#0 781985790#1 -464461060"/>
    </vehicle>
    <vehicle id="116" type="passenger" depart="281.55">
        <route edges="-270279686#0 620607766#3 775222468#0 775222468#1 775222468#2 -273028084#7 -273028084#6 -273028084#5 -273028084#4 -273028084#2 -273028084#1 -273028084#0 -464461053#2"/>
    </vehicle>
    <vehicle id="117" type="passenger" depart="283.98">
        <route edges="-464461053#1 -464461063 -273028084#5 -273028084#4 -273028084#2 -273028084#1 -273028084#0 -464461053#2 -381226323 464461057#1 464461057#2"/>
    </vehicle>
    <vehicle id="118" type="passenger" depart="286.40">