<?xml version="1.0" encoding="UTF-8"?>

<!-- generated on 2026-04-15 00:24:01.320577 by Eclipse SUMO randomTrips.py v1.26.0
<configuration>
    <net-file value="/Users/junlee/Desktop/2026-1/js/result/2026-04-15_00-06-49/sumo_nets/cw_6153/network.net.xml"/>
    <output-trip-file value="/Users/junlee/Desktop/2026-1/js/result/2026-04-15_00-06-49/sumo_nets/cw_6153/routes_seed43.trips.xml"/>
    <route-file value="/Users/junlee/Desktop/2026-1/js/result/2026-04-15_00-06-49/sumo_nets/cw_6153/routes_seed43.rou.xml"/>
    <vehicle-class value="passenger"/>
    <seed value="43"/>
    <end value="1800.0"/>
    <period value="5.351655859632119"/>
</configuration>
-->

<routes xmlns:xsi="http://www.w3.org/2001/XMLSchema-instance" xsi:noNamespaceSchemaLocation="http://sumo.dlr.de/xsd/routes_file.xsd">
    <vType id="passenger" vClass="passenger"/>
    <trip id="0" depart="0.00" from="-315658896#1" to="712288152#2" type="passenger"/>
    <trip id="1" depart="5.35" from="-318747848#6" to="318747848#3" type="passenger"/>
    <trip id="2" depart="10.70" from="318747848#2" to="318747848#7" type="passenger"/>
    <trip id="3" depart="16.05" from="-315658884#3" to="315658897#0" type="passenger"/>
    <trip id="4" depart="21.41" from="315658884#2" to="777881147#2" type="passenger"/>
    <trip id="5" depart="26.76" from="315658884#2" to="-318747848#3" type="passenger"/>
    <trip id="6" depart="32.11" from="333557072#2" to="318747848#7" type="passenger"/>
    <trip id="7" depart="37.46" from="770860565#1" to="619147739#3" type="passenger"/>
    <trip id="8" depart="42.81" from="315658884#2" to="-315658896#2" type="passenger"/>
    <trip id="9" depart="48.16" from="-315658897#2" to="777881147#2" type="passenger"/>
    <trip id="10" depart="53.52" from="712288152#1" to="-318747848#2" type="passenger"/>
    <trip id="11" depart="58.87" from="78628775#0" to="-955312947#1" type="passenger"/>
    <trip id="12" depart="64.22" from="379943753#0" to="712288152#2" type="passenger"/>
    <trip id="13" depart="69.57" from="-651817398#0" to="777881147#1" type="passenger"/>
    <trip id="14" depart="74.92" from="773060732#0" to="-315658896#2" type="passenger"/>
    <trip id="15" depart="80.27" from="619147739#4" to="315658884#3" type="passenger"/>
    <trip id="16" depart="85.63" from="-651817398#2" to="619147739#4" type="passenger"/>
    <trip id="17" depart="90.98" from="821457682#1" to="379943753#1" type="passenger"/>
    <trip id="18" depart="96.33" from="-318747848#3" to="318747848#6" type="passenger"/>
    <trip id="19" depart="101.68" from="770860548#2" to="-315658896#1" type="passenger"/>
    <trip id="20" depart="107.03" from="821457682#1" to="619147739#4" type="passenger"/>
    <trip id="21" depart="112.38" from="-315658897#0" to="-318747848#6" type="passenger"/>
    <trip id="22" depart="117.74" from="315658897#1" to="-315658896#1" type="passenger"/>
    <trip id="23" depart="123.09" from="955312947#0" to="-318747848#6" type="passenger"/>
    <trip id="24" depart="128.44" from="770860551" to="955312947#1" type="passenger"/>
    <trip id="25" depart="133.79" from="78628775#0" to="781983103#2" type="passenger"/>
    <trip id="26" depart="139.14" from="770860548#1" to="777881147#1" type="passenger"/>
    <trip id="27" depart="144.49" from="770860548#2" to="-318747848#2" type="passenger"/>
    <trip id="28" depart="149.85" from="315658896#1" to="712288152#0" type="passenger"/>
    <trip id="29" depart="155.20" from="-788296726#0" to="-955312948" type="passenger"/>
    <trip id="30" depart="160.55" from="821457682#0" to="-770860548#0" type="passenger"/>
    <trip id="31" depart="165.90" from="-651817398#2" to="-712288152#2" type="passenger"/>
    <trip id="32" depart="171.25" from="315658884#3" to="955312947#1" type="passenger"/>
    <trip id="33" depart="176.60" from="-315658896#4" to="-315658884#4" type="passenger"/>
    <trip id="34" depart="181.96" from="379943755#1" to="619147739#5" type="passenger"/>
    <trip id="35" depart="187.31" from="333557072#2" to="78628775#3" type="passenger"/>
    <trip id="36" depart="192.66" from="-318747848#7" to="-315658884#1" type="passenger"/>
    <trip id="37" depart="198.01" from="770860548#1" to="-318747848#6" type="passenger"/>
    <trip id="38" depart="203.36" from="315658884#2" to="-955312947#0" type="passenger"/>
    <trip id="39" depart="208.71" from="-770860548#3" to="-318747848#7" type="passenger"/>
    <trip id="40" depart="214.07" from="619147739#2" to="712288152#1" type="passenger"/>
    <trip id="41" depart="219.42" from="-651817398#4" to="-315658896#2" type="passenger"/>
    <trip id="42" depart="224.77" from="-770860549" to="712288152#2" type="passenger"/>
    <trip id="43" depart="230.12" from="-315658896#5" to="712288152#2" type="passenger"/>
    <trip id="44" depart="235.47" from="770860549" to="318747848#4" type="passenger"/>
    <trip id="45" depart="240.82" from="318747848#5" to="315658897#2" type="passenger"/>
    <trip id="46" depart="246.18" from="78628775#2" to="770860552#1" type="passenger"/>
    <trip id="47" depart="251.53" from="379943755#1" to="777881147#1" type="passenger"/>
    <trip id="48" depart="256.88" from="619147739#6" to="-315658884#3" type="passenger"/>
    <trip id="49" depart="262.23" from="-318747848#2" to="781983103#2" type="passenger"/>
    <trip id="50" depart="267.58" from="-770860548#2" to="318747848#5" type="passenger"/>
    <trip id="51" depart="272.93" from="-955312947#0" to="315658897#1" type="passenger"/>
    <trip id="52" depart="278.29" from="773060732#3" to="315658884#2" type="passenger"/>
    <trip id="53" depart="283.64" from="770860548#0" to="315658897#2" type="passenger"/>
    <trip id="54" depart="288.99" from="315658884#2" to="955312948" type="passenger"/>
    <trip id="55" depart="294.34" from="379943753#0" to="-315658896#2" type="passenger"/>
    <trip id="56" depart="299.69" from="-651817398#2" to="781983103#2" type="passenger"/>
    <trip id="57" depart="305.04" from="78628775#2" to="-770860551" type="passenger"/>
    <trip id="58" depart="310.40" from="781983104#1" to="777881145" type="passenger"/>
    <trip id="59" depart="315.75" from="333557072#2" to="-318747848#7" type="passenger"/>
    <trip id="60" depart="321.10" from="770860552#2" to="-770860549" type="passenger"/>
    <trip id="61" depart="326.45" from="-318747848#7" to="712288152#1" type="passenger"/>
    <trip id="62" depart="331.80" from="315658884#4" to="315658884#4" type="passenger"/>
    <trip id="63" depart="337.15" from="-651817398#4" to="712288152#2" type="passenger"/>
    <trip id="64" depart="342.51" from="712288152#1" to="379943753#0" type="passenger"/>
    <trip id="65" depart="347.86" from="-955312948" to="-315658897#1" type="passenger"/>
    <trip id="66" depart="353.21" from="-788296726#1" to="-315658896#1" type="passenger"/>
    <trip id="67" depart="358.56" from="78628770#1" to="777881145" type="passenger"/>
    <trip id="68" depart="363.91" from="-651817398#4" to="777881147#2" type="passenger"/>
    <trip id="69" depart="369.26" from="770860565#1" to="-315658896#1" type="passenger"/>
    <trip id="70" depart="374.62" from="-315658896#5" to="781983103#1" type="passenger"/>
    <trip id="71" depart="379.97" from="-770860551" to="619147739#4" type="passenger"/>
    <trip id="72" depart="385.32" from="773060732#1" to="619147739#6" type="passenger"/>
    <trip id="73" depart="390.67" from="-651817398#4" to="315658897#1" type="passenger"/>
    <trip id="74" depart="396.02" from="-318747848#7" to="-315658884#4" type="passenger"/>
    <trip id="75" depart="401.37" from="-318747848#3" to="315658897#2" type="passenger"/>
    <trip id="76" depart="406.73" from="318747848#3" to="-318747848#6" type="passenger"/>
    <trip id="77" depart="412.08" from="770860548#0" to="318747848#7" type="passenger"/>
    <trip id="78" depart="417.43" from="333557072#3" to="-770860548#1" type="passenger"/>
    <trip id="79" depart="422.78" from="770860565#0" to="-315658884#2" type="passenger"/>
    <trip id="80" depart="428.13" from="-770860565#1" to="-318747848#3" type="passenger"/>
    <trip id="81" depart="433.48" from="-315658897#0" to="-315658884#2" type="passenger"/>
    <trip id="82" depart="438.84" from="333557072#3" to="-315658897#0" type="passenger"/>
    <trip id="83" depart="444.19" from="-318747848#3" to="315658897#0" type="passenger"/>
    <trip id="84" depart="449.54" from="955312948" to="315658884#2" type="passenger"/>
    <trip id="85" depart="454.89" from="-770860551" to="315658896#5" type="passenger"/>
    <trip id="86" depart="460.24" from="-315658897#1" to="619147739#5" type="passenger"/>
    <trip id="87" depart="465.59" from="-315658896#3" to="315658897#0" type="passenger"/>
    <trip id="88" depart="470.95" from="-770860548#2" to="788296726#0" type="passenger"/>
    <trip id="89" depart="476.30" from="-770860552#2" to="315658884#1" type="passenger"/>
    <trip id="90" depart="481.65" from="-770860565#0" to="-318747848#6" type="passenger"/>
    <trip id="91" depart="487.00" from="-770860551" to="-318747848#4" type="passenger"/>
    <trip id="92" depart="492.35" from="78628770#1" to="315658897#2" type="passenger"/>
    <trip id="93" depart="497.70" from="-770860548#2" to="619147739#6" type="passenger"/>
    <trip id="94" depart="503.06" from="315658897#0" to="379943753#1" type="passenger"/>
    <trip id="95" depart="508.41" from="315658884#3" to="315658896#3" type="passenger"/>
    <trip id="96" depart="513.76" from="78628775#4" to="-315658884#3" type="passenger"/>
    <trip id="97" depart="519.11" from="-651817398#3" to="315658884#1" type="passenger"/>
    <trip id="98" depart="524.46" from="770860549" to="-315658884#2" type="passenger"/>
    <trip id="99" depart="529.81" from="-318747848#5" to="955312947#1" type="passenger"/>
    <trip id="100" depart="535.17" from="315658897#1" to="318747848#7" type="passenger"/>
    <trip id="101" depart="540.52" from="315658884#3" to="379943753#0" type="passenger"/>
    <trip id="102" depart="545.87" from="770860548#1" to="-318747848#7" type="passenger"/>
    <trip id="103" depart="551.22" from="777881144#0" to="315658884#2" type="passenger"/>
    <trip id="104" depart="556.57" from="315658897#1" to="315658884#2" type="passenger"/>
    <trip id="105" depart="561.92" from="-318747848#7" to="318747848#5" type="passenger"/>
    <trip id="106" depart="567.28" from="-770860552#1" to="-770860552#1" type="passenger"/>
    <trip id="107" depart="572.63" from="315658884#4" to="619147739#6" type="passenger"/>
    <trip id="108" depart="577.98" from="318747848#3" to="712288152#2" type="passenger"/>
    <trip id="109" depart="583.33" from="821457682#1" to="315658884#1" type="passenger"/>
    <trip id="110" depart="588.68" from="78628775#0" to="78628770#1" type="passenger"/>
    <trip id="111" depart="594.03" from="78628775#3" to="333557072#3" type="passenger"/>
    <trip id="112" depart="599.39" from="-770860548#1" to="315658897#0" type="passenger"/>
    <trip id="113" depart="604.74" from="619147739#4" to="315658884#4" type="passenger"/>
    <trip id="114" depart="610.09" from="-788296726#0" to="318747848#6" type="passenger"/>
    <trip id="115" depart="615.44" from="-318747848#3" to="318747848#5" type="passenger"/>
    <trip id="116" depart="620.79" from="-788296726#1" to="315658884#4" type="passenger"/>
    <trip id="117" depart="626.14" from="-315658884#4" to="955312947#1" type="passenger"/>
    <trip id="118" depart="631.50" from="-651817398#5" to="-315658884#2" type="passenger"/>
    <trip id="119" depart="636.85" from="619147739#3" to="-315658896#1" type="passenger"/>
    <trip id="120" depart="642.20" from="-315658896#3" to="318747848#4" type="passenger"/>
    <trip id="121" depart="647.55" from="770860548#0" to="770860552#2" type="passenger"/>
    <trip id="122" depart="652.90" from="773060732#2" to="773060732#3" type="passenger"/>
    <trip id="123" depart="658.25" from="-788296726#0" to="78628770#1" type="passenger"/>
    <trip id="124" depart="663.61" from="770860552#1" to="619147739#6" type="passenger"/>
    <trip id="125" depart="668.96" from="781983103#1" to="315658884#1" type="passenger"/>
    <trip id="126" depart="674.31" from="773060732#3" to="315658884#1" type="passenger"/>
    <trip id="127" depart="679.66" from="-315658897#1" to="777881145" type="passenger"/>
    <trip id="128" depart="685.01" from="619147739#6" to="-315658896#2" type="passenger"/>
    <trip id="129" depart="690.36" from="-315658897#1" to="315658884#1" type="passenger"/>
    <trip id="130" depart="695.72" from="770860552#1" to="-315658884#3" type="passenger"/>
    <trip id="131" depart="701.07" from="-770860548#1" to="-315658884#2" type="passenger"/>
    <trip id="132" depart="706.42" from="-788296726#0" to="-955312947#0" type="passenger"/>
    <trip id="133" depart="711.77" from="379943755#1" to="-318747848#5" type="passenger"/>
    <trip id="134" depart="717.12" from="773060732#1" to="777881145" type="passenger"/>
    <trip id="135" depart="722.47" from="315658896#2" to="781983103#2" type="passenger"/>
    <trip id="136" depart="727.83" from="712288152#0" to="379943755#1" type="passenger"/>
    <trip id="137" depart="733.18" from="315658884#3" to="379943753#1" type="passenger"/>
    <trip id="138" depart="738.53" from="315658884#3" to="-955312947#1" type="passenger"/>
    <trip id="139" depart="743.88" from="781983104#1" to="788296726#0" type="passenger"/>
    <trip id="140" depart="749.23" from="-955312948" to="-318747848#7" type="passenger"/>
    <trip id="141" depart="754.58" from="379943753#1" to="318747848#3" type="passenger"/>
    <trip id="142" depart="759.94" from="315658897#1" to="619147739#4" type="passenger"/>
    <trip id="143" depart="765.29" from="712288152#2" to="379943753#1" type="passenger"/>
    <trip id="144" depart="770.64" from="78628775#3" to="712288152#0" type="passenger"/>
    <trip id="145" depart="775.99" from="333557072#2" to="315658884#4" type="passenger"/>
    <trip id="146" depart="781.34" from="-770860548#3" to="-318747848#2" type="passenger"/>
    <trip id="147" depart="786.69" from="-315658897#1" to="777881144#1" type="passenger"/>
    <trip id="148" depart="792.05" from="318747848#2" to="-315658884#4" type="passenger"/>
    <trip id="149" depart="797.40" from="-315658896#5" to="-318747848#6" type="passenger"/>
    <trip id="150" depart="802.75" from="773060732#4" to="712288152#2" type="passenger"/>
    <trip id="151" depart="808.10" from="821457682#0" to="712288152#1" type="passenger"/>
    <trip id="152" depart="813.45" from="-651817398#4" to="-315658884#4" type="passenger"/>
    <trip id="153" depart="818.80" from="78628770#1" to="-955312948" type="passenger"/>
    <trip id="154" depart="824.16" from="-788296726#1" to="-770860552#2" type="passenger"/>
    <trip id="155" depart="829.51" from="318747848#7" to="-315658884#3" type="passenger"/>
    <trip id="156" depart="834.86" from="773060732#3" to="955312948" type="passenger"/>
    <trip id="157" depart="840.21" from="-651817398#5" to="315658896#2" type="passenger"/>
    <trip id="158" depart="845.56" from="788296726#0" to="-770860551" type="passenger"/>
    <trip id="159" depart="850.91" from="-318747848#3" to="619147739#4" type="passenger"/>
    <trip id="160" depart="856.26" from="-315658896#4" to="315658896#4" type="passenger"/>
    <trip id="161" depart="861.62" from="-651817398#3" to="777881144#1" type="passenger"/>
    <trip id="162" depart="866.97" from="315658896#1" to="777881144#1" type="passenger"/>
    <trip id="163" depart="872.32" from="-315658896#2" to="-315658884#2" type="passenger"/>
    <trip id="164" depart="877.67" from="770860551" to="770860548#3" type="passenger"/>
    <trip id="165" depart="883.02" from="773060732#1" to="315658884#3" type="passenger"/>
    <trip id="166" depart="888.37" from="770860565#1" to="-770860548#1" type="passenger"/>
    <trip id="167" depart="893.73" from="788296726#1" to="-770860552#1" type="passenger"/>
    <trip id="168" depart="899.08" from="821457682#1" to="770860565#1" type="passenger"/>
    <trip id="169" depart="904.43" from="-318747848#3" to="-955312947#1" type="passenger"/>
    <trip id="170" depart="909.78" from="619147739#3" to="318747848#7" type="passenger"/>
    <trip id="171" depart="915.13" from="333557072#1" to="333557072#1" type="passenger"/>
    <trip id="172" depart="920.48" from="-770860552#2" to="-318747848#7" type="passenger"/>
    <trip id="173" depart="925.84" from="318747848#5" to="315658897#1" type="passenger"/>
    <trip id="174" depart="931.19" from="-315658884#2" to="-318747848#6" type="passenger"/>
    <trip id="175" depart="936.54" from="315658897#0" to="318747848#7" type="passenger"/>
    <trip id="176" depart="941.89" from="770860552#1" to="770860552#1" type="passenger"/>
    <trip id="177" depart="947.24" from="-315658896#3" to="-315658884#1" type="passenger"/>
    <trip id="178" depart="952.59" from="-770860552#2" to="955312947#0" type="passenger"/>
    <trip id="179" depart="957.95" from="-955312947#1" to="379943753#1" type="passenger"/>
    <trip id="180" depart="963.30" from="-315658897#0" to="619147739#3" type="passenger"/>
    <trip id="181" depart="968.65" from="-315658896#5" to="-315658884#4" type="passenger"/>
    <trip id="182" depart="974.00" from="-382947009" to="-955312948" type="passenger"/>
    <trip id="183" depart="979.35" from="-315658884#3" to="-315658884#2" type="passenger"/>
    <trip id="184" depart="984.70" from="-318747848#6" to="315658884#3" type="passenger"/>
    <trip id="185" depart="990.06" from="78628775#4" to="777881145" type="passenger"/>
    <trip id="186" depart="995.41" from="821457682#0" to="788296726#0" type="passenger"/>
    <trip id="187" depart="1000.76" from="777881145" to="777881147#4" type="passenger"/>
    <trip id="188" depart="1006.11" from="821457682#0" to="-770860565#0" type="passenger"/>
    <trip id="189" depart="1011.46" from="-955312947#0" to="955312948" type="passenger"/>
    <trip id="190" depart="1016.81" from="333557072#2" to="619147739#3" type="passenger"/>
    <trip id="191" depart="1022.17" from="315658884#3" to="-315658884#1" type="passenger"/>
    <trip id="192" depart="1027.52" from="315658897#0" to="-318747848#6" type="passenger"/>
    <trip id="193" depart="1032.87" from="-315658897#0" to="-315658896#2" type="passenger"/>
    <trip id="194" depart="1038.22" from="773060732#2" to="777881144#0" type="passenger"/>
    <trip id="195" depart="1043.57" from="-315658884#4" to="379943753#0" type="passenger"/>
    <trip id="196" depart="1048.92" from="-382947009" to="-770860565#0" type="passenger"/>
    <trip id="197" depart="1054.28" from="-788296726#0" to="-315658897#1" type="passenger"/>
    <trip id="198" depart="1059.63" from="773060732#3" to="777881147#1" type="passenger"/>
    <trip id="199" depart="1064.98" from="379943755#1" to="781983103#2" type="passenger"/>
    <trip id="200" depart="1070.33" from="773060732#3" to="379943753#0" type="passenger"/>
    <trip id="201" depart="1075.68" from="315658884#3" to="-318747848#2" type="passenger"/>
    <trip id="202" depart="1081.03" from="770860548#1" to="78628775#5" type="passenger"/>
    <trip id="203" depart="1086.39" from="-770860552#2" to="-318747848#4" type="passenger"/>
    <trip id="204" depart="1091.74" from="777881144#0" to="315658884#1" type="passenger"/>
    <trip id="205" depart="1097.09" from="-955312947#0" to="-315658884#4" type="passenger"/>
    <trip id="206" depart="1102.44" from="619147739#1" to="315658897#2" type="passenger"/>
    <trip id="207" depart="1107.79" from="-315658884#4" to="379943753#0" type="passenger"/>
    <trip id="208" depart="1113.14" from="-382947009" to="-770860565#0" type="passenger"/>
    <trip id="209" depart="1118.50" from="770860552#2" to="955312947#1" type="passenger"/>
    <trip id="210" depart="1123.85" from="379943753#1" to="-955312947#0" type="passenger"/>
    <trip id="211" depart="1129.20" from="777881144#0" to="-315658884#2" type="passenger"/>
    <trip id="212" depart="1134.55" from="-315658896#4" to="712288152#2" type="passenger"/>
    <trip id="213" depart="1139.90" from="781983104#0" to="315658897#2" type="passenger"/>
    <trip id="214" depart="1145.25" from="318747848#6" to="781983103#2" type="passenger"/>
    <trip id="215" depart="1150.61" from="770860565#0" to="-315658897#0" type="passenger"/>
    <trip id="216" depart="1155.96" from="-651817398#4" to="315658897#1" type="passenger"/>
    <trip id="217" depart="1161.31" from="333557072#3" to="-770860552#2" type="passenger"/>
    <trip id="218" depart="1166.66" from="-315658897#0" to="-315658897#1" type="passenger"/>
    <trip id="219" depart="1172.01" from="712288152#2" to="315658897#2" type="passenger"/>
    <trip id="220" depart="1177.36" from="-770860548#2" to="318747848#2" type="passenger"/>
    <trip id="221" depart="1182.72" from="-770860549" to="-955312947#1" type="passenger"/>
    <trip id="222" depart="1188.07" from="770860549" to="78628770#1" type="passenger"/>
    <trip id="223" depart="1193.42" from="-770860565#0" to="315658897#0" type="passenger"/>
    <trip id="224" depart="1198.77" from="781983104#1" to="777881145" type="passenger"/>
    <trip id="225" depart="1204.12" from="-315658896#2" to="-318747848#4" type="passenger"/>
    <trip id="226" depart="1209.47" from="712288152#0" to="712288152#2" type="passenger"/>
    <trip id="227" depart="1214.83" from="770860551" to="315658897#2" type="passenger"/>
    <trip id="228" depart="1220.18" from="315658884#3" to="619147739#6" type="passenger"/>
    <trip id="229" depart="1225.53" from="333557072#3" to="318747848#6" type="passenger"/>
    <trip id="230" depart="1230.88" from="-315658896#5" to="318747848#7" type="passenger"/>
    <trip id="231" depart="1236.23" from="379943753#1" to="-315658884#2" type="passenger"/>
    <trip id="232" depart="1241.58" from="-315658884#1" to="955312947#0" type="passenger"/>
    <trip id="233" depart="1246.94" from="-788296726#1" to="-318747848#4" type="passenger"/>
    <trip id="234" depart="1252.29" from="-315658897#2" to="315658897#1" type="passenger"/>
    <trip id="235" depart="1257.64" from="78628770#1" to="315658884#2" type="passenger"/>
    <trip id="236" depart="1262.99" from="770860552#1" to="777881144#1" type="passenger"/>
    <trip id="237" depart="1268.34" from="770860565#1" to="619147739#6" type="passenger"/>
    <trip id="238" depart="1273.69" from="-315658896#5" to="955312948" type="passenger"/>
    <trip id="239" depart="1279.05" from="770860551" to="-315658896#2" type="passenger"/>
    <trip id="240" depart="1284.40" from="619147739#6" to="-318747848#2" type="passenger"/>
    <trip id="241" depart="1289.75" from="781983104#1" to="770860552#2" type="passenger"/>
    <trip id="242" depart="1295.10" from="-788296726#1" to="315658896#1" type="passenger"/>
    <trip id="243" depart="1300.45" from="-651817398#4" to="712288152#0" type="passenger"/>
    <trip id="244" depart="1305.80" from="770860552#1" to="-955312947#0" type="passenger"/>
    <trip id="245" depart="1311.16" from="-651817398#4" to="-318747848#2" type="passenger"/>
    <trip id="246" depart="1316.51" from="770860548#1" to="318747848#5" type="passenger"/>
    <trip id="247" depart="1321.86" from="-770860565#0" to="619147739#5" type="passenger"/>
    <trip id="248" depart="1327.21" from="318747848#4" to="379943755#1" type="passenger"/>
    <trip id="249" depart="1332.56" from="712288152#1" to="712288152#1" type="passenger"/>
    <trip id="250" depart="1337.91" from="-770860565#1" to="318747848#4" type="passenger"/>
    <trip id="251" depart="1343.27" from="770860552#1" to="78628775#4" type="passenger"/>
    <trip id="252" depart="1348.62" from="318747848#7" to="379943753#1" type="passenger"/>
    <trip id="253" depart="1353.97" from="788296726#0" to="770860548#3" type="passenger"/>
    <trip id="254" depart="1359.32" from="770860551" to="770860552#2" type="passenger"/>
    <trip id="255" depart="1364.67" from="-770860548#2" to="315658896#1" type="passenger"/>
    <trip id="256" depart="1370.02" from="-770860565#0" to="315658896#1" type="passenger"/>
    <trip id="257" depart="1375.38" from="315658884#4" to="315658896#1" type="passenger"/>
    <trip id="258" depart="1380.73" from="-770860548#1" to="-318747848#6" type="passenger"/>
    <trip id="259" depart="1386.08" from="770860552#1" to="318747848#7" type="passenger"/>
    <trip id="260" depart="1391.43" from="955312948" to="-315658897#1" type="passenger"/>
    <trip id="261" depart="1396.78" from="78628775#5" to="78628775#5" type="passenger"/>
    <trip id="262" depart="1402.13" from="318747848#7" to="379943755#1" type="passenger"/>
    <trip id="263" depart="1407.49" from="619147739#6" to="318747848#3" type="passenger"/>
    <trip id="264" depart="1412.84" from="-315658897#0" to="777881147#4" type="passenger"/>
    <trip id="265" depart="1418.19" from="788296726#0" to="333557072#3" type="passenger"/>
    <trip id="266" depart="1423.54" from="770860549" to="-651818430" type="passenger"/>
    <trip id="267" depart="1428.89" from="-770860552#1" to="770860552#1" type="passenger"/>
    <trip id="268" depart="1434.24" from="-770860565#1" to="-770860565#0" type="passenger"/>
    <trip id="269" depart="1439.60" from="770860552#2" to="379943755#1" type="passenger"/>
    <trip id="270" depart="1444.95" from="-318747848#6" to="712288152#1" type="passenger"/>
    <trip id="271" depart="1450.30" from="-770860549" to="315658896#2" type="passenger"/>
    <trip id="272" depart="1455.65" from="712288152#2" to="315658884#4" type="passenger"/>
    <trip id="273" depart="1461.00" from="318747848#2" to="315658897#0" type="passenger"/>
    <trip id="274" depart="1466.35" from="651817398#4" to="651817398#4" type="passenger"/>
    <trip id="275" depart="1471.71" from="781983104#0" to="-318747848#6" type="passenger"/>
    <trip id="276" depart="1477.06" from="619147739#1" to="315658884#4" type="passenger"/>
    <trip id="277" depart="1482.41" from="-651817398#0" to="955312947#1" type="passenger"/>
    <trip id="278" depart="1487.76" from="-651817398#0" to="-315658884#3" type="passenger"/>
    <trip id="279" depart="1493.11" from="770860551" to="315658897#1" type="passenger"/>
    <trip id="280" depart="1498.46" from="-318747848#3" to="619147739#4" type="passenger"/>
    <trip id="281" depart="1503.82" from="318747848#2" to="712288152#2" type="passenger"/>
    <trip id="282" depart="1509.17" from="-770860548#1" to="315658896#2" type="passenger"/>
    <trip id="283" depart="1514.52" from="379943753#0" to="315658884#4" type="passenger"/>
    <trip id="284" depart="1519.87" from="315658897#1" to="-315658884#1" type="passenger"/>
    <trip id="285" depart="1525.22" from="770860548#2" to="619147739#3" type="passenger"/>
    <trip id="286" depart="1530.57" from="712288152#2" to="619147739#4" type="passenger"/>
    <trip id="287" depart="1535.93" from="315658896#2" to="777881145" type="passenger"/>
    <trip id="288" depart="1541.28" from="770860548#2" to="770860565#0" type="passenger"/>
    <trip id="289" depart="1546.63" from="821457682#1" to="318747848#4" type="passenger"/>
    <trip id="290" depart="1551.98" from="-315658896#4" to="315658896#3" type="passenger"/>
    <trip id="291" depart="1557.33" from="619147739#3" to="315658897#0" type="passenger"/>
    <trip id="292" depart="1562.68" from="619147739#4" to="379943753#1" type="passenger"/>
    <trip id="293" depart="1568.04" from="770860565#1" to="781983103#2" type="passenger"/>
    <trip id="294" depart="1573.39" from="788296726#0" to="315658896#2" type="passenger"/>
    <trip id="295" depart="1578.74" from="619147739#6" to="777881144#1" type="passenger"/>
    <trip id="296" depart="1584.09" from="619147739#3" to="315658884#2" type="passenger"/>
    <trip id="297" depart="1589.44" from="777881144#0" to="-955312947#1" type="passenger"/>
    <trip id="298" depart="1594.79" from="770860548#0" to="315658884#4" type="passenger"/>
    <trip id="299" depart="1600.15" from="-770860552#2" to="379943755#1" type="passenger"/>
    <trip id="300" depart="1605.50" from="773060732#0" to="-318747848#7" type="passenger"/>
    <trip id="301" depart="1610.85" from="-770860549" to="315658897#2" type="passenger"/>
    <trip id="302" depart="1616.20" from="-651817398#4" to="379943753#0" type="passenger"/>
    <trip id="303" depart="1621.55" from="619147739#0" to="712288152#2" type="passenger"/>
    <trip id="304" depart="1626.90" from="619147739#3" to="379943753#1" type="passenger"/>
    <trip id="305" depart="1632.26" from="315658896#1" to="315658896#4" type="passenger"/>
    <trip id="306" depart="1637.61" from="770860565#1" to="333557072#3" type="passenger"/>
    <trip id="307" depart="1642.96" from="781983104#0" to="-770860552#1" type="passenger"/>
    <trip id="308" depart="1648.31" from="318747848#4" to="777881147#2" type="passenger"/>
    <trip id="309" depart="1653.66" from="-955312948" to="315658884#4" type="passenger"/>
    <trip id="310" depart="1659.01" from="773060732#3" to="315658884#1" type="passenger"/>
    <trip id="311" depart="1664.36" from="619147739#2" to="379943753#1" type="passenger"/>
    <trip id="312" depart="1669.72" from="318747848#4" to="318747848#5" type="passenger"/>
    <trip id="313" depart="1675.07" from="821457682#0" to="318747848#3" type="passenger"/>
    <trip id="314" depart="1680.42" from="-770860552#2" to="-315658897#0" type="passenger"/>
    <trip id="315" depart="1685.77" from="78628775#0" to="-955312948" type="passenger"/>
    <trip id="316" depart="1691.12" from="955312948" to="777881145" type="passenger"/>
    <trip id="317" depart="1696.47" from="-770860548#2" to="78628775#4" type="passenger"/>
    <trip id="318" depart="1701.83" from="78628775#3" to="955312948" type="passenger"/>
    <trip id="319" depart="1707.18" from="-770860551" to="770860552#2" type="passenger"/>
    <trip id="320" depart="1712.53" from="379943753#1" to="955312948" type="passenger"/>
    <trip id="321" depart="1717.88" from="619147739#4" to="318747848#4" type="passenger"/>