<?xml version="1.0" encoding="UTF-8"?>

<!-- generated on 2026-04-15 00:24:01.498489 by Eclipse SUMO randomTrips.py v1.26.0
<configuration>
    <net-file value="/Users/junlee/Desktop/2026-1/js/result/2026-04-15_00-06-49/sumo_nets/cw_6153/network.net.xml"/>
    <output-trip-file value="/Users/junlee/Desktop/2026-1/js/result/2026-04-15_00-06-49/sumo_nets/cw_6153/routes_seed43.trips.xml"/>
    <route-file value="/Users/junlee/Desktop/2026-1/js/result/2026-04-15_00-06-49/sumo_nets/cw_6153/routes_seed43.rou.xml"/>
    <vehicle-class value="passenger"/>
    <seed value="43"/>
    <end value="1800.0"/>
    <period value="5.351655859632119"/>
</configuration>
-->

<!-- generated on 2026-04-15T00:24:01.479878+09:00 by Eclipse SUMO duarouter 1.26.0
<duarouterConfiguration xmlns:xsi="http://www.w3.org/2001/XMLSchema-instance" xsi:noNamespaceSchemaLocation="http://sumo.dlr.de/xsd/duarouterConfiguration.xsd">

    <input>
        <net-file value="/Users/junlee/Desktop/2026-1/js/result/2026-04-15_00-06-49/sumo_nets/cw_6153/network.net.xml"/>
        <route-files value="/Users/junlee/Desktop/2026-1/js/result/2026-04-15_00-06-49/sumo_nets/cw_6153/routes_seed43.trips.xml"/>
    </input>

    <output>
        <output-file value="/Users/junlee/Desktop/2026-1/js/result/2026-04-15_00-06-49/sumo_nets/cw_6153/routes_seed43.rou.xml"/>
        <alternatives-output value="NUL"/>
    </output>

    <time>
        <begin value="0.0"/>
        <end value="1800.0"/>
    </time>

    <report>
        <no-warnings value="true"/>
        <ignore-errors value="true"/>
        <no-step-log value="true"/>
    </report>

</duarouterConfiguration>
-->

<routes xmlns:xsi="http://www.w3.org/2001/XMLSchema-instance" xsi:noNamespaceSchemaLocation="http://sumo.dlr.de/xsd/routes_file.xsd">
    <vType id="passenger" vClass="passenger"/>
    <vehicle id="0" type="passenger" depart="0.00">
        <route edges="-315658896#1 619147739#6 -955312948 -955312947#0 315658896#1 315658896#2 -318747848#7 -318747848#6 -318747848#5 -318747848#4 -318747848#3 -318747848#2 379943755#1 379943753#0 379943753#1 712288152#0 712288152#1 712288152#2"/>
    </vehicle>
    <vehicle id="1" type="passenger" depart="5.35">
        <route edges="-318747848#6 -318747848#5 -318747848#4 -318747848#3 -318747848#2 379943755#1 379943753#0 379943753#1 712288152#0 712288152#1 712288152#2 619147739#3 619147739#4 315658884#1 315658884#2 315658884#3 315658884#4 318747848#3"/>
    </vehicle>
    <vehicle id="2" type="passenger" depart="10.70">
        <route edges="318747848#2 318747848#3 318747848#4 318747848#5 318747848#6 318747848#7"/>
    </vehicle>
    <vehicle id="3" type="passenger" depart="16.05">
        <route edges="-315658884#3 -315658884#2 -315658884#1 315658897#0"/>
    </vehicle>
    <vehicle id="4" type="passenger" depart="21.41">
        <route edges="315658884#2 315658884#3 315658884#4 -318747848#2 777881144#1 777881145 777881147#1 777881147#2"/>
    </vehicle>
    <vehicle id="5" type="passenger" depart="26.76">
        <route edges="315658884#2 315658884#3 315658884#4 -318747848#2 379943755#1 379943753#0 379943753#1 712288152#0 712288152#1 712288152#2 619147739#3 619147739#4 619147739#5 315658896#1 315658896#2 -318747848#7 -318747848#6 -318747848#5 -318747848#4 -318747848#3"/>
    </vehicle>
    <vehicle id="6" type="passenger" depart="32.11">
        <route edges="333557072#2 333557072#3 -770860548#3 -770860548#2 770860565#0 770860565#1 78628775#5 78628770#1 318747848#2 318747848#3 318747848#4 318747848#5 318747848#6 318747848#7"/>
    </vehicle>
    <vehicle id="7" type="passenger" depart="37.46">
        <route edges="770860565#1 78628775#5 78628770#1 379943755#1 379943753#0 379943753#1 712288152#0 712288152#1 712288152#2 619147739#3"/>
    </vehicle>
    <vehicle id="8" type="passenger" depart="42.81">
        <route edges="315658884#2 315658884#3 315658884#4 318747848#3 318747848#4 318747848#5 318747848#6 318747848#7 -315658896#2"/>
    </vehicle>
    <vehicle id="9" type="passenger" depart="48.16">
        <route edges="-315658897#2 315658896#2 -318747848#7 -318747848#6 -318747848#5 -318747848#4 -318747848#3 -318747848#2 777881144#1 777881145 777881147#1 777881147#2"/>
    </vehicle>
    <vehicle id="10" type="passenger" depart="53.52">
        <route edges="712288152#1 712288152#2 619147739#3 619147739#4 315658884#1 315658884#2 315658884#3 315658884#4 -318747848#2"/>
    </vehicle>
    <vehicle id="11" type="passenger" depart="58.87">
        <route edges="78628775#0 78628775#2 78628775#3 78628775#4 78628775#5 78628770#1 318747848#2 -315658884#4 -315658884#3 -315658884#2 -315658884#1 619147739#5 619147739#6 781983103#1 -955312947#1"/>
    </vehicle>
    <vehicle id="12" type="passenger" depart="64.22">
        <route edges="379943753#0 379943753#1 712288152#0 712288152#1 712288152#2"/>
    </vehicle>
    <vehicle id="13" type="passenger" depart="69.57">
        <route edges="-651817398#0 619147739#1 619147739#2 619147739#3 619147739#4 315658884#1 315658884#2 315658884#3 315658884#4 -318747848#2 777881144#1 777881145 777881147#1"/>
    </vehicle>
    <vehicle id="14" type="passenger" depart="74.92">
        <route edges="773060732#0 773060732#1 773060732#2 773060732#3 777881144#0 318747848#2 318747848#3 318747848#4 318747848#5 318747848#6 318747848#7 -315658896#2"/>
    </vehicle>
    <vehicle id="15" type="passenger" depart="80.27">
        <route edges="619147739#4 315658884#1 315658884#2 315658884#3"/>
    </vehicle>
    <vehicle id="16" type="passenger" depart="85.63">
        <route edges="-651817398#2 -651817398#1 -651817398#0 619147739#1 619147739#2 619147739#3 619147739#4"/>
    </vehicle>
    <vehicle id="17" type="passenger" depart="90.98">
        <route edges="821457682#1 333557072#3 -770860548#3 -770860548#2 770860565#0 770860565#1 78628775#5 78628770#1 379943755#1 379943753#0 379943753#1"/>
    </vehicle>
    <vehicle id="18" type="passenger" depart="96.33">
        <route edges="-318747848#3 -318747848#2 379943755#1 379943753#0 379943753#1 712288152#0 712288152#1 712288152#2 619147739#3 619147739#4 315658884#1 315658884#2 315658884#3 315658884#4 318747848#3 318747848#4 318747848#5 318747848#6"/>
    </vehicle>
    <vehicle id="19" type="passenger" depart="101.68">
        <route edges="770860548#2 770860549 821457682#1 333557072#3 -770860548#3 -770860548#2 770860565#0 770860565#1 78628775#5 78628770#1 318747848#2 318747848#3 318747848#4 318747848#5 318747848#6 318747848#7 -315658896#2 -315658896#1"/>
    </vehicle>
    <vehicle id="20" type="passenger" depart="107.03">
        <route edges="821457682#1 333557072#3 -770860548#3 -770860548#2 770860565#0 770860565#1 78628775#5 78628770#1 379943755#1 379943753#0 379943753#1 712288152#0 712288152#1 712288152#2 619147739#3 619147739#4"/>
    </vehicle>
    <vehicle id="21" type="passenger" depart="112.38">
        <route edges="-315658897#0 619147739#5 315658896#1 315658896#2 -318747848#7 -318747848#6"/>
    </vehicle>
    <vehicle id="22" type="passenger" depart="117.74">
        <route edges="315658897#1 -315658896#1"/>
    </vehicle>
    <vehicle id="23" type="passenger" depart="123.09">
        <route edges="955312947#0 955312948 781983103#1 -955312947#1 -955312947#0 315658896#1 315658896#2 -318747848#7 -318747848#6"/>
    </vehicle>
    <vehicle id="24" type="passenger" depart="128.44">
        <route edges="770860551 770860548#1 770860565#0 770860565#1 78628775#5 78628770#1 318747848#2 -315658884#4 -315658884#3 -315658884#2 -315658884#1 619147739#5 619147739#6 -955312948 955312947#1"/>
    </vehicle>
    <vehicle id="25" type="passenger" depart="133.79">
        <route edges="78628775#0 78628775#2 78628775#3 78628775#4 78628775#5 78628770#1 318747848#2 -315658884#4 -315658884#3 -315658884#2 -315658884#1 619147739#5 619147739#6 781983103#1 781983103#2"/>
    </vehicle>
    <vehicle id="26" type="passenger" depart="139.14">
        <route edges="770860548#1 770860565#0 770860565#1 78628775#5 78628770#1 379943755#1 379943753#0 379943753#1 712288152#0 712288152#1 712288152#2 619147739#3 619147739#4 315658884#1 315658884#2 315658884#3 315658884#4 -318747848#2 777881144#1 777881145 777881147#1"/>
    </vehicle>
    <vehicle id="27" type="passenger" depart="144.49">
        <route edges="770860548#2 770860549 821457682#1 333557072#3 -770860548#3 -770860548#2 770860565#0 770860565#1 78628775#5 78628770#1 379943755#1 379943753#0 379943753#1 712288152#0 712288152#1 712288152#2 619147739#3 619147739#4 315658884#1 315658884#2 315658884#3 315658884#4 -318747848#2"/>
    </vehicle>
    <vehicle id="28" type="passenger" depart="149.85">
        <route edges="315658896#1 315658896#2 -318747848#7 -318747848#6 -318747848#5 -318747848#4 -318747848#3 -318747848#2 379943755#1 379943753#0 379943753#1 712288152#0"/>
    </vehicle>
    <vehicle id="29" type="passenger" depart="155.20">
        <route edges="-788296726#0 770860552#1 770860552#2 770860565#1 78628775#5 78628770#1 318747848#2 -315658884#4 -315658884#3 -315658884#2 -315658884#1 619147739#5 619147739#6 -955312948"/>
    </vehicle>
    <vehicle id="30" type="passenger" depart="160.55">
        <route edges="821457682#0 -770860549 -770860548#2 -770860548#1 -770860548#0"/>
    </vehicle>
    <vehicle id="31" type="passenger" depart="165.90">
        <route edges="-651817398#2 -651817398#1 -651817398#0 619147739#1 619147739#2 -712288152#2"/>
    </vehicle>
    <vehicle id="32" type="passenger" depart="171.25">
        <route edges="315658884#3 315658884#4 318747848#3 318747848#4 318747848#5 318747848#6 318747848#7 -315658896#2 -315658896#1 955312947#0 955312947#1"/>
    </vehicle>
    <vehicle id="33" type="passenger" depart="176.60">
        <route edges="-315658896#4 -315658896#3 -318747848#7 -318747848#6 -318747848#5 -318747848#4 -318747848#3 -315658884#4"/>
    </vehicle>
    <vehicle id="34" type="passenger" depart="181.96">
        <route edges="379943755#1 379943753#0 379943753#1 712288152#0 712288152#1 712288152#2 619147739#3 619147739#4 619147739#5"/>
    </vehicle>
    <vehicle id="35" type="passenger" depart="187.31">
        <route edges="333557072#2 333557072#3 -770860548#3 -770860548#2 -770860548#1 -770860551 788296726#0 788296726#1 78628775#3"/>
    </vehicle>
    <vehicle id="36" type="passenger" depart="192.66">
        <route edges="-318747848#7 -318747848#6 -318747848#5 -318747848#4 -318747848#3 -315658884#4 -315658884#3 -315658884#2 -315658884#1"/>
    </vehicle>
    <vehicle id="37" type="passenger" depart="198.01">
        <route edges="770860548#1 770860565#0 770860565#1 78628775#5 78628770#1 318747848#2 -315658884#4 -315658884#3 -315658884#2 -315658884#1 315658897#0 315658897#1 315658896#2 -318747848#7 -318747848#6"/>
    </vehicle>
    <vehicle id="38" type="passenger" depart="203.36">
        <route edges="315658884#2 315658884#3 315658884#4 318747848#3 318747848#4 318747848#5 318747848#6 318747848#7 -315658896#2 -315658896#1 619147739#6 -955312948 -955312947#0"/>
    </vehicle>
    <vehicle id="39" type="passenger" depart="208.71">
        <route edges="-770860548#3 -770860548#2 770860565#0 770860565#1 78628775#5 78628770#1 318747848#2 -315658884#4 -315658884#3 -315658884#2 -315658884#1 315658897#0 315658897#1 315658896#2 -318747848#7"/>
    </vehicle>
    <vehicle id="40" type="passenger" depart="214.07">
        <route edges="619147739#2 619147739#3 619147739#4 315658884#1 315658884#2 315658884#3 315658884#4 -318747848#2 379943755#1 379943753#0 379943753#1 712288152#0 712288152#1"/>
    </vehicle>
    <vehicle id="41" type="passenger" depart="219.42">
        <route edges="-651817398#4 -651817398#3 -651817398#2 -651817398#1 -651817398#0 619147739#1 619147739#2 619147739#3 619147739#4 315658884#1 315658884#2 315658884#3 315658884#4 318747848#3 318747848#4 318747848#5 318747848#6 318747848#7 -315658896#2"/>
    </vehicle>
    <vehicle id="42" type="passenger" depart="224.77">
        <route edges="-770860549 -770860548#2 770860565#0 770860565#1 78628775#5 78628770#1 379943755#1 379943753#0 379943753#1 712288152#0 712288152#1 712288152#2"/>
    </vehicle>
    <vehicle id="43" type="passenger" depart="230.12">
        <route edges="-315658896#5 -315658896#4 -315658896#3 -318747848#7 -318747848#6 -318747848#5 -318747848#4 -318747848#3 -318747848#2 379943755#1 379943753#0 379943753#1 712288152#0 712288152#1 712288152#2"/>
    </vehicle>
    <vehicle id="44" type="passenger" depart="235.47">
        <route edges="770860549 821457682#1 333557072#3 -770860548#3 -770860548#2 770860565#0 770860565#1 78628775#5 78628770#1 318747848#2 318747848#3 318747848#4"/>
    </vehicle>
    <vehicle id="45" type="passenger" depart="240.82">
        <route edges="318747848#5 318747848#6 318747848#7 -315658896#2 315658897#2"/>
    </vehicle>
    <vehicle id="46" type="passenger" depart="246.18">
        <route edges="78628775#2 -788296726#1 -788296726#0 770860552#1"/>
    </vehicle>
    <vehicle id="47" type="passenger" depart="251.53">
        <route edges="379943755#1 379943753#0 379943753#1 712288152#0 712288152#1 712288152#2 619147739#3 619147739#4 315658884#1 315658884#2 315658884#3 315658884#4 -318747848#2 777881144#1 777881145 777881147#1"/>
    </vehicle>
    <vehicle id="48" type="passenger" depart="256.88">
        <route edges="619147739#6 -955312948 -955312947#0 315658896#1 315658896#2 -318747848#7 -318747848#6 -318747848#5 -318747848#4 -318747848#3 -315658884#4 -315658884#3"/>
    </vehicle>
    <vehicle id="49" type="passenger" depart="262.23">
        <route edges="-318747848#2 379943755#1 379943753#0 379943753#1 712288152#0 712288152#1 712288152#2 619147739#3 619147739#4 619147739#5 619147739#6 781983103#1 781983103#2"/>
    </vehicle>
    <vehicle id="50" type="passenger" depart="267.58">
        <route edges="-770860548#2 770860565#0 770860565#1 78628775#5 78628770#1 318747848#2 318747848#3 318747848#4 318747848#5"/>
    </vehicle>
    <vehicle id="51" type="passenger" depart="272.93">
        <route edges="-955312947#0 315658896#1 315658896#2 -318747848#7 -318747848#6 -318747848#5 -318747848#4 -318747848#3 -315658884#4 -315658884#3 -315658884#2 -315658884#1 315658897#0 315658897#1"/>
    </vehicle>
    <vehicle id="52" type="passenger" depart="278.29">
        <route edges="773060732#3 773060732#4 379943753#0 379943753#1 712288152#0 712288152#1 712288152#2 619147739#3 619147739#4 315658884#1 315658884#2"/>
    </vehicle>
    <vehicle id="53" type="passenger" depart="283.64">
        <route edges="770860548#0 770860548#1 770860565#0 770860565#1 78628775#5 78628770#1 318747848#2 -315658884#4 -315658884#3 -315658884#2 -315658884#1 315658897#0 315658897#1 315658897#2"/>
    </vehicle>
    <vehicle id="54" type="passenger" depart="288.99">
        <route edges="315658884#2 315658884#3 315658884#4 318747848#3 318747848#4 318747848#5 318747848#6 318747848#7 -315658896#2 -315658896#1 955312947#0 955312948"/>
    </vehicle>
    <vehicle id="55" type="passenger" depart="294.34">
        <route edges="379943753#0 379943753#1 712288152#0 712288152#1 712288152#2 619147739#3 619147739#4 315658884#1 315658884#2 315658884#3 315658884#4 318747848#3 318747848#4 318747848#5 318747848#6 318747848#7 -315658896#2"/>
    </vehicle>
    <vehicle id="56" type="passenger" depart="299.69">
        <route edges="-651817398#2 -651817398#1 -651817398#0 619147739#1 619147739#2 619147739#3 619147739#4 619147739#5 619147739#6 781983103#1 781983103#2"/>
    </vehicle>
    <vehicle id="57" type="passenger" depart="305.04">
        <route edges="78628775#2 78628775#3 78628775#4 -770860565#1 -770860565#0 -770860548#1 -770860551"/>
    </vehicle>
    <vehicle id="58" type="passenger" depart="310.40">
        <route edges="781983104#1 333557072#1 333557072#2 333557072#3 -770860548#3 -770860548#2 770860565#0 770860565#1 78628775#5 78628770#1 379943755#1 379943753#0 379943753#1 712288152#0 712288152#1 712288152#2 619147739#3 619147739#4 315658884#1 315658884#2 315658884#3 315658884#4 -318747848#2 777881144#1 777881145"/>
    </vehicle>
    <vehicle id="59" type="passenger" depart="315.75">
        <route edges="333557072#2 333557072#3 -770860548#3 -770860548#2 770860565#0 770860565#1 78628775#5 78628770#1 318747848#2 -315658884#4 -315658884#3 -315658884#2 -315658884#1 315658897#0 315658897#1 315658896#2 -318747848#7"/>
    </vehicle>
    <vehicle id="60" type="passenger" depart="321.10">
        <route edges="770860552#2 770860565#1 821457682#0 -770860549"/>
    </vehicle>
    <vehicle id="61" type="passenger" depart="326.45">
        <route edges="-318747848#7 -318747848#6 -318747848#5 -318747848#4 -318747848#3 -318747848#2 379943755#1 379943753#0 379943753#1 712288152#0 712288152#1"/>
    </vehicle>
    <vehicle id="62" type="passenger" depart="331.80">
        <route edges="315658884#4"/>
    </vehicle>
    <vehicle id="63" type="passenger" depart="337.15">
        <route edges="-651817398#4 -651817398#3 -651817398#2 -651817398#1 -651817398#0 619147739#1 619147739#2 619147739#3 619147739#4 315658884#1 315658884#2 315658884#3 315658884#4 -318747848#2 379943755#1 379943753#0 379943753#1 712288152#0 712288152#1 712288152#2"/>
    </vehicle>
    <vehicle id="64" type="passenger" depart="342.51">
        <route edges="712288152#1 712288152#2 619147739#3 619147739#4 315658884#1 315658884#2 315658884#3 315658884#4 -318747848#2 379943755#1 379943753#0"/>
    </vehicle>
    <vehicle id="65" type="passenger" depart="347.86">
        <route edges="-955312948 -955312947#0 315658896#1 -315658897#1"/>
    </vehicle>
    <vehicle id="66" type="passenger" depart="353.21">
        <route edges="-788296726#1 -788296726#0 770860552#1 770860552#2 770860565#1 78628775#5 78628770#1 318747848#2 318747848#3 318747848#4 318747848#5 318747848#6 318747848#7 -315658896#2 -315658896#1"/>
    </vehicle>
    <vehicle id="67" type="passenger" depart="358.56">
        <route edges="78628770#1 379943755#1 379943753#0 379943753#1 712288152#0 712288152#1 712288152#2 619147739#3 619147739#4 315658884#1 315658884#2 315658884#3 315658884#4 -318747848#2 777881144#1 777881145"/>
    </vehicle>
    <vehicle id="68" type="passenger" depart="363.91">
        <route edges="-651817398#4 -651817398#3 -651817398#2 -651817398#1 -651817398#0 619147739#1 619147739#2 619147739#3 619147739#4 315658884#1 315658884#2 315658884#3 315658884#4 -318747848#2 777881144#1 777881145 777881147#1 777881147#2"/>
    </vehicle>
    <vehicle id="69" type="passenger" depart="369.26">
        <route edges="770860565#1 78628775#5 78628770#1 318747848#2 318747848#3 318747848#4 318747848#5 318747848#6 318747848#7 -315658896#2 -315658896#1"/>
    </vehicle>
    <vehicle id="70" type="passenger" depart="374.62">
        <route edges="-315658896#5 -315658896#4 -315658896#3 -315658896#2 -315658896#1 619147739#6 781983103#1"/>
    </vehicle>
    <vehicle id="71" type="passenger" depart="379.97">
        <route edges="-770860551 788296726#0 788296726#1 78628775#3 78628775#4 78628775#5 78628770#1 379943755#1 379943753#0 379943753#1 712288152#0 712288152#1 712288152#2 619147739#3 619147739#4"/>
    </vehicle>
    <vehicle id="72" type="passenger" depart="385.32">
        <route edges="773060732#1 773060732#2 773060732#3 777881144#0 318747848#2 -315658884#4 -315658884#3 -315658884#2 -315658884#1 619147739#5 619147739#6"/>
    </vehicle>
    <vehicle id="73" type="passenger" depart="390.67">
        <route edges="-651817398#4 -651817398#3 -651817398#2 -651817398#1 -651817398#0 619147739#1 619147739#2 619147739#3 619147739#4 315658897#0 315658897#1"/>
    </vehicle>
    <vehicle id="74" type="passenger" depart="396.02">
        <route edges="-318747848#7 -318747848#6 -318747848#5 -318747848#4 -318747848#3 -315658884#4"/>
    </vehicle>
    <vehicle id="75" type="passenger" depart="401.37">
        <route edges="-318747848#3 -315658884#4 -315658884#3 -315658884#2 -315658884#1 315658897#0 315658897#1 315658897#2"/>
    </vehicle>
    <vehicle id="76" type="passenger" depart="406.73">
        <route edges="318747848#3 318747848#4 318747848#5 318747848#6 318747848#7 -315658896#2 -315658897#1 -315658897#0 619147739#5 315658896#1 315658896#2 -318747848#7 -318747848#6"/>
    </vehicle>
    <vehicle id="77" type="passenger" depart="412.08">
        <route edges="770860548#0 770860548#1 770860565#0 770860565#1 78628775#5 78628770#1 318747848#2 318747848#3 318747848#4 318747848#5 318747848#6 318747848#7"/>
    </vehicle>
    <vehicle id="78" type="passenger" depart="417.43">
        <route edges="333557072#3 -770860548#3 -770860548#2 -770860548#1"/>
    </vehicle>
    <vehicle id="79" type="passenger" depart="422.78">
        <route edges="770860565#0 770860565#1 78628775#5 78628770#1 318747848#2 -315658884#4 -315658884#3 -315658884#2"/>
    </vehicle>
    <vehicle id="80" type="passenger" depart="428.13">
        <route edges="-770860565#1 -770860552#2 -770860552#1 788296726#0 788296726#1 78628775#3 78628775#4 78628775#5 78628770#1 318747848#2 -315658884#4 -315658884#3 -315658884#2 -315658884#1 315658897#0 315658897#1 315658896#2 -318747848#7 -318747848#6 -318747848#5 -318747848#4 -318747848#3"/>
    </vehicle>
    <vehicle id="81" type="passenger" depart="433.48">
        <route edges="-315658897#0 619147739#5 315658896#1 315658896#2 -318747848#7 -318747848#6 -318747848#5 -318747848#4 -318747848#3 -315658884#4 -315658884#3 -315658884#2"/>
    </vehicle>
    <vehicle id="82" type="passenger" depart="438.84">
        <route edges="333557072#3 -770860548#3 -770860548#2 770860565#0 770860565#1 78628775#5 78628770#1 318747848#2 318747848#3 318747848#4 318747848#5 318747848#6 318747848#7 -315658896#2 -315658897#1 -315658897#0"/>
    </vehicle>
    <vehicle id="83" type="passenger" depart="444.19">
        <route edges="-318747848#3 -315658884#4 -315658884#3 -315658884#2 -315658884#1 315658897#0"/>
    </vehicle>
    <vehicle id="84" type="passenger" depart="449.54">
        <route edges="955312948 781983103#1 -955312947#1 -955312947#0 315658896#1 -315658897#1 -315658897#0 315658884#1 315658884#2"/>
    </vehicle>
    <vehicle id="85" type="passenger" depart="454.89">
        <route edges="-770860551 788296726#0 788296726#1 78628775#3 78628775#4 78628775#5 78628770#1 318747848#2 318747848#3 318747848#4 318747848#5 318747848#6 318747848#7 315658896#3 315658896#4 315658896#5"/>
    </vehicle>
    <vehicle id="86" type="passenger" depart="460.24">
        <route edges="-315658897#1 -315658897#0 619147739#5"/>
    </vehicle>
    <vehicle id="87" type="passenger" depart="465.59">
        <route edges="-315658896#3 -318747848#7 -318747848#6 -318747848#5 -318747848#4 -318747848#3 -315658884#4 -315658884#3 -315658884#2 -315658884#1 315658897#0"/>
    </vehicle>
    <vehicle id="88" type="passenger" depart="470.95">
        <route edges="-770860548#2 -770860548#1 -770860551 788296726#0"/>
    </vehicle>
    <vehicle id="89" type="passenger" depart="476.30">
        <route edges="-770860552#2 -770860552#1 788296726#0 788296726#1 78628775#3 78628775#4 78628775#5 78628770#1 379943755#1 379943753#0 379943753#1 712288152#0 712288152#1 712288152#2 619147739#3 619147739#4 315658884#1"/>
    </vehicle>
    <vehicle id="90" type="passenger" depart="481.65">
        <route edges="-770860565#0 -770860548#1 -770860551 788296726#0 788296726#1 78628775#3 78628775#4 78628775#5 78628770#1 318747848#2 -315658884#4 -315658884#3 -315658884#2 -315658884#1 315658897#0 315658897#1 315658896#2 -318747848#7 -318747848#6"/>
    </vehicle>
    <vehicle id="91" type="passenger" depart="487.00">
        <route edges="-770860551 788296726#0 788296726#1 78628775#3 78628775#4 78628775#5 78628770#1 318747848#2 -315658884#4 -315658884#3 -315658884#2 -315658884#1 315658897#0 315658897#1 315658896#2 -318747848#7 -318747848#6 -318747848#5 -318747848#4"/>
    </vehicle>
    <vehicle id="92" type="passenger" depart="492.35">
        <route edges="78628770#1 318747848#2 -315658884#4 -315658884#3 -315658884#2 -315658884#1 315658897#0 315658897#1 315658897#2"/>
    </vehicle>
    <vehicle id="93" type="passenger" depart="497.70">
        <route edges="-770860548#2 770860565#0 770860565#1 78628775#5 78628770#1 318747848#2 -315658884#4 -315658884#3 -315658884#2 -315658884#1 619147739#5 619147739#6"/>
    </vehicle>
    <vehicle id="94" type="passenger" depart="503.06">
        <route edges="315658897#0 315658897#1 315658896#2 -318747848#7 -318747848#6 -318747848#5 -318747848#4 -318747848#3 -318747848#2 379943755#1 379943753#0 379943753#1"/>
    </vehicle>
    <vehicle id="95" type="passenger" depart="508.41">
        <route edges="315658884#3 315658884#4 318747848#3 318747848#4 318747848#5 318747848#6 318747848#7 315658896#3"/>
    </vehicle>
    <vehicle id="96" type="passenger" depart="513.76">
        <route edges="78628775#4 78628775#5 78628770#1 318747848#2 -315658884#4 -315658884#3"/>
    </vehicle>
    <vehicle id="97" type="passenger" depart="519.11">
        <route edges="-651817398#3 -651817398#2 -651817398#1 -651817398#0 619147739#1 619147739#2 619147739#3 619147739#4 315658884#1"/>
    </vehicle>
    <vehicle id="98" type="passenger" depart="524.46">
        <route edges="770860549 821457682#1 333557072#3 -770860548#3 -770860548#2 770860565#0 770860565#1 78628775#5 78628770#1 318747848#2 -315658884#4 -315658884#3 -315658884#2"/>
    </vehicle>
    <vehicle id="99" type="passenger" depart="529.81">
        <route edges="-318747848#5 -318747848#4 -318747848#3 -315658884#4 -315658884#3 -315658884#2 -315658884#1 619147739#5 619147739#6 -955312948 955312947#1"/>
    </vehicle>
    <vehicle id="100" type="passenger" depart="535.17">
        <route edges="315658897#1 -315658896#1 619147739#6 -955312948 -955312947#0 315658896#1 -315658897#1 -315658897#0 315658884#1 315658884#2 315658884#3 315658884#4 318747848#3 318747848#4 318747848#5 318747848#6 318747848#7"/>
    </vehicle>
    <vehicle id="101" type="passenger" depart="540.52">
        <route edges="315658884#3 315658884#4 -318747848#2 379943755#1 379943753#0"/>
    </vehicle>
    <vehicle id="102" type="passenger" depart="545.87">
        <route edges="770860548#1 770860565#0 770860565#1 78628775#5 78628770#1 318747848#2 -315658884#4 -315658884#3 -315658884#2 -315658884#1 315658897#0 315658897#1 315658896#2 -318747848#7"/>
    </vehicle>
    <vehicle id="103" type="passenger" depart="551.22">
        <route edges="777881144#0 318747848#2 318747848#3 318747848#4 318747848#5 318747848#6 318747848#7 -315658896#2 -315658897#1 -315658897#0 315658884#1 315658884#2"/>
    </vehicle>
    <vehicle id="104" type="passenger" depart="556.57">
        <route edges="315658897#1 -315658896#1 619147739#6 -955312948 -955312947#0 315658896#1 -315658897#1 -315658897#0 315658884#1 315658884#2"/>
    </vehicle>
    <vehicle id="105" type="passenger" depart="561.92">
        <route edges="-318747848#7 -318747848#6 -318747848#5 -318747848#4 -318747848#3 -318747848#2 379943755#1 379943753#0 379943753#1 712288152#0 712288152#1 712288152#2 619147739#3 619147739#4 315658884#1 315658884#2 315658884#3 315658884#4 318747848#3 318747848#4 318747848#5"/>
    </vehicle>
    <vehicle id="106" type="passenger" depart="567.28">
        <route edges="-770860552#1"/>
    </vehicle>
    <vehicle id="107" type="passenger" depart="572.63">
        <route edges="315658884#4 318747848#3 318747848#4 318747848#5 318747848#6 318747848#7 -315658896#2 -315658896#1 619147739#6"/>
    </vehicle>
    <vehicle id="108" type="passenger" depart="577.98">
        <route edges="318747848#3 318747848#4 318747848#5 318747848#6 318747848#7 -315658896#2 -315658897#1 -315658897#0 315658884#1 315658884#2 315658884#3 315658884#4 -318747848#2 379943755#1 379943753#0 379943753#1 712288152#0 712288152#1 712288152#2"/>
    </vehicle>
    <vehicle id="109" type="passenger" depart="583.33">
        <route edges="821457682#1 333557072#3 -770860548#3 -770860548#2 770860565#0 770860565#1 78628775#5 78628770#1 379943755#1 379943753#0 379943753#1 712288152#0 712288152#1 712288152#2 619147739#3 619147739#4 315658884#1"/>
    </vehicle>
    <vehicle id="110" type="passenger" depart="588.68">
        <route edges="78628775#0 78628775#2 78628775#3 78628775#4 78628775#5 78628770#1"/>
    </vehicle>
    <vehicle id="111" type="passenger" depart="594.03">
        <route edges="78628775#3 78628775#4 821457682#0 821457682#1 333557072#3"/>
    </vehicle>
    <vehicle id="112" type="passenger" depart="599.39">
        <route edges="-770860548#1 -770860551 788296726#0 788296726#1 78628775#3 78628775#4 78628775#5 78628770#1 318747848#2 -315658884#4 -315658884#3 -315658884#2 -315658884#1 315658897#0"/>
    </vehicle>
    <vehicle id="113" type="passenger" depart="604.74">
        <route edges="619147739#4 315658884#1 315658884#2 315658884#3 315658884#4"/>
    </vehicle>
    <vehicle id="114" type="passenger" depart="610.09">
        <route edges="-788296726#0 770860552#1 770860552#2 770860565#1 78628775#5 78628770#1 318747848#2 318747848#3 318747848#4 318747848#5 318747848#6"/>
    </vehicle>
    <vehicle id="115" type="passenger" depart="615.44">
        <route edges="-318747848#3 -318747848#2 379943755#1 379943753#0 379943753#1 712288152#0 712288152#1 712288152#2 619147739#3 619147739#4 315658884#1 315658884#2 315658884#3 315658884#4 318747848#3 318747848#4 318747848#5"/>
    </vehicle>
    <vehicle id="116" type="passenger" depart="620.79">
        <route edges="-788296726#1 -788296726#0 770860552#1 770860552#2 770860565#1 78628775#5 78628770#1 379943755#1 379943753#0 379943753#1 712288152#0 712288152#1 712288152#2 619147739#3 619147739#4 315658884#1 315658884#2 315658884#3 315658884#4"/>
    </vehicle>
    <vehicle id="117" type="passenger" depart="626.14">
        <route edges="-315658884#4 -315658884#3 -315658884#2 -315658884#1 619147739#5 619147739#6 -955312948 955312947#1"/>
    </vehicle>
    <vehicle id="118" type="passenger" depart="631.50">