<?xml version="1.0" encoding="UTF-8"?>

<!-- generated on 2026-04-15 23:22:31.314742 by Eclipse SUMO randomTrips.py v1.26.0
<configuration>
    <net-file value="/Users/junlee/Desktop/2026-1/js/result/report_top12_seed4_2h/sumo_nets/cw_23040/network.net.xml"/>
    <output-trip-file value="/Users/junlee/Desktop/2026-1/js/result/report_top12_seed4_2h/sumo_nets/cw_23040/routes_seed43.trips.xml"/>
    <route-file value="/Users/junlee/Desktop/2026-1/js/result/report_top12_seed4_2h/sumo_nets/cw_23040/routes_seed43.rou.xml"/>
    <vehicle-class value="passenger"/>
    <seed value="43"/>
    <end value="1800.0"/>
    <period value="3.5677705730880795"/>
</configuration>
-->

<routes xmlns:xsi="http://www.w3.org/2001/XMLSchema-instance" xsi:noNamespaceSchemaLocation="http://sumo.dlr.de/xsd/routes_file.xsd">
    <vType id="passenger" vClass="passenger"/>
    <trip id="0" depart="0.00" from="-224260190#2" to="384030401#0" type="passenger"/>
    <trip id="1" depart="3.57" from="376666931#0" to="516163750#0" type="passenger"/>
    <trip id="2" depart="7.14" from="1339655668" to="224260190#3" type="passenger"/>
    <trip id="3" depart="10.70" from="-224260190#0" to="219696191#0" type="passenger"/>
    <trip id="4" depart="14.27" from="331990404#0" to="464445691#3" type="passenger"/>
    <trip id="5" depart="17.84" from="1206220507#0" to="-376666931#4" type="passenger"/>
    <trip id="6" depart="21.41" from="585341906#2" to="585341906#2" type="passenger"/>
    <trip id="7" depart="24.97" from="-778973690" to="-376666930#0" type="passenger"/>
    <trip id="8" depart="28.54" from="224260190#0" to="224260190#3" type="passenger"/>
    <trip id="9" depart="32.11" from="464445691#0" to="376666921" type="passenger"/>
    <trip id="10" depart="35.68" from="224260190#0" to="376666916#1" type="passenger"/>
    <trip id="11" depart="39.25" from="-778973690" to="-224260190#2" type="passenger"/>
    <trip id="12" depart="42.81" from="376666931#1" to="-376666930#0" type="passenger"/>
    <trip id="13" depart="46.38" from="376666921" to="516163750#0" type="passenger"/>
    <trip id="14" depart="49.95" from="585352852#1" to="1206220503#0" type="passenger"/>
    <trip id="15" depart="53.52" from="224260190#2" to="384030401#0" type="passenger"/>
    <trip id="16" depart="57.08" from="-376666931#3" to="585341907#2" type="passenger"/>
    <trip id="17" depart="60.65" from="464445691#0" to="-224260190#2" type="passenger"/>
    <trip id="18" depart="64.22" from="-376666932#1" to="376666930#0" type="passenger"/>
    <trip id="19" depart="67.79" from="-376666930#0" to="224260190#3" type="passenger"/>
    <trip id="20" depart="71.36" from="464445691#0" to="767111811#1" type="passenger"/>
    <trip id="21" depart="74.92" from="376666931#4" to="-224260190#1" type="passenger"/>
    <trip id="22" depart="78.49" from="-376666916#2" to="-376666931#0" type="passenger"/>
    <trip id="23" depart="82.06" from="-376666916#2" to="376666931#3" type="passenger"/>
    <trip id="24" depart="85.63" from="-376666930#0" to="333554718" type="passenger"/>
    <trip id="25" depart="89.19" from="-1339655668" to="631259843" type="passenger"/>
    <trip id="26" depart="92.76" from="376666931#3" to="585341907#2" type="passenger"/>
    <trip id="27" depart="96.33" from="376666931#3" to="-376666930#0" type="passenger"/>
    <trip id="28" depart="99.90" from="1206220504#0" to="376666932#1" type="passenger"/>
    <trip id="29" depart="103.47" from="-376666932#1" to="-376666931#4" type="passenger"/>
    <trip id="30" depart="107.03" from="516163750#0" to="384030401#1" type="passenger"/>
    <trip id="31" depart="110.60" from="-376666932#1" to="-384030401#1" type="passenger"/>
    <trip id="32" depart="114.17" from="-384030401#2" to="224260190#0" type="passenger"/>
    <trip id="33" depart="117.74" from="-376666916#0" to="-224260190#0" type="passenger"/>
    <trip id="34" depart="121.30" from="331990404#0" to="376666930#0" type="passenger"/>
    <trip id="35" depart="124.87" from="224260190#0" to="631259844" type="passenger"/>
    <trip id="36" depart="128.44" from="-376666930#2" to="464445692#0" type="passenger"/>
    <trip id="37" depart="132.01" from="376666931#2" to="-376666930#2" type="passenger"/>
    <trip id="38" depart="135.58" from="376666921" to="-376666932#1" type="passenger"/>
    <trip id="39" depart="139.14" from="1206220504#1" to="-1339655669" type="passenger"/>
    <trip id="40" depart="142.71" from="-778973690" to="-778973690" type="passenger"/>
    <trip id="41" depart="146.28" from="-464445691#3" to="-376666931#0" type="passenger"/>
    <trip id="42" depart="149.85" from="-384030401#0" to="-224260190#1" type="passenger"/>
    <trip id="43" depart="153.41" from="-516163750#0" to="384030401#0" type="passenger"/>
    <trip id="44" depart="156.98" from="-376666916#1" to="384030401#0" type="passenger"/>
    <trip id="45" depart="160.55" from="376666932#0" to="224260190#1" type="passenger"/>
    <trip id="46" depart="164.12" from="218962181" to="219696191#1" type="passenger"/>
    <trip id="47" depart="167.69" from="615671505#0" to="464445691#3" type="passenger"/>
    <trip id="48" depart="171.25" from="331990404#0" to="585341907#2" type="passenger"/>
    <trip id="49" depart="174.82" from="224260190#1" to="376666916#1" type="passenger"/>
    <trip id="50" depart="178.39" from="376666930#0" to="585341906#2" type="passenger"/>
    <trip id="51" depart="181.96" from="376666916#0" to="-224260190#0" type="passenger"/>
    <trip id="52" depart="185.52" from="376666931#2" to="631259843" type="passenger"/>
    <trip id="53" depart="189.09" from="778973690" to="376666930#0" type="passenger"/>
    <trip id="54" depart="192.66" from="-464445691#3" to="224260190#2" type="passenger"/>
    <trip id="55" depart="196.23" from="-516163750#0" to="-376666931#1" type="passenger"/>
    <trip id="56" depart="199.80" from="376666931#2" to="219696191#1" type="passenger"/>
    <trip id="57" depart="203.36" from="-631259844" to="516163750#1" type="passenger"/>
    <trip id="58" depart="206.93" from="224260190#1" to="-224260190#2" type="passenger"/>
    <trip id="59" depart="210.50" from="464445691#1" to="-384030401#0" type="passenger"/>
    <trip id="60" depart="214.07" from="585352852#1" to="-516163750#0" type="passenger"/>
    <trip id="61" depart="217.63" from="-376666932#1" to="-516163750#0" type="passenger"/>
    <trip id="62" depart="221.20" from="585352852#0" to="585341907#2" type="passenger"/>
    <trip id="63" depart="224.77" from="224260190#0" to="-376666931#0" type="passenger"/>
    <trip id="64" depart="228.34" from="384030401#0" to="-516163750#0" type="passenger"/>
    <trip id="65" depart="231.91" from="-376666930#0" to="376666931#4" type="passenger"/>
    <trip id="66" depart="235.47" from="-516163750#1" to="376666931#3" type="passenger"/>
    <trip id="67" depart="239.04" from="-384030401#0" to="384030401#0" type="passenger"/>
    <trip id="68" depart="242.61" from="376666931#1" to="333554718" type="passenger"/>
    <trip id="69" depart="246.18" from="585352852#0-AddedOffRampEdge" to="585341907#0" type="passenger"/>
    <trip id="70" depart="249.74" from="-376666932#1" to="376666930#2" type="passenger"/>
    <trip id="71" depart="253.31" from="1206220504#1" to="-376666916#0" type="passenger"/>
    <trip id="72" depart="256.88" from="376666930#0" to="-376666921" type="passenger"/>
    <trip id="73" depart="260.45" from="464445691#0" to="-224260190#1" type="passenger"/>
    <trip id="74" depart="264.02" from="376666931#0" to="585341906#0" type="passenger"/>
    <trip id="75" depart="267.58" from="376666930#2" to="-384030401#1" type="passenger"/>
    <trip id="76" depart="271.15" from="-516163750#1" to="376666930#0" type="passenger"/>
    <trip id="77" depart="274.72" from="464445691#1" to="376666930#2" type="passenger"/>
    <trip id="78" depart="278.29" from="1206220504#0" to="376666930#2" type="passenger"/>
    <trip id="79" depart="281.85" from="1339655668" to="376666916#2" type="passenger"/>
    <trip id="80" depart="285.42" from="-384030401#0" to="219696191#0" type="passenger"/>
    <trip id="81" depart="288.99" from="516163750#1" to="224260190#2" type="passenger"/>
    <trip id="82" depart="292.56" from="-224260190#0" to="585341906#0" type="passenger"/>
    <trip id="83" depart="296.12" from="-376666930#0" to="219696191#1" type="passenger"/>
    <trip id="84" depart="299.69" from="1339655669" to="-376666930#2" type="passenger"/>
    <trip id="85" depart="303.26" from="376666921" to="-516163750#0" type="passenger"/>
    <trip id="86" depart="306.83" from="384030401#1" to="-1339655668" type="passenger"/>
    <trip id="87" depart="310.40" from="-376666916#2" to="-1339655668" type="passenger"/>
    <trip id="88" depart="313.96" from="-376666930#0" to="219696191#0" type="passenger"/>
    <trip id="89" depart="317.53" from="376666931#1" to="-376666932#1" type="passenger"/>
    <trip id="90" depart="321.10" from="376666930#2" to="376666916#0" type="passenger"/>
    <trip id="91" depart="324.67" from="585352852#0-AddedOffRampEdge" to="-778973690" type="passenger"/>
    <trip id="92" depart="328.23" from="-224260190#1" to="384030401#2" type="passenger"/>
    <trip id="93" depart="331.80" from="-376666916#2" to="376666930#0" type="passenger"/>
    <trip id="94" depart="335.37" from="-631259844" to="-376666930#2" type="passenger"/>
    <trip id="95" depart="338.94" from="-384030401#1" to="-376666930#2" type="passenger"/>
    <trip id="96" depart="342.51" from="-516163750#1" to="-376666930#1" type="passenger"/>
    <trip id="97" depart="346.07" from="585352852#0-AddedOffRampEdge" to="219696191#1" type="passenger"/>
    <trip id="98" depart="349.64" from="1206220507#0" to="-376666931#4" type="passenger"/>
    <trip id="99" depart="353.21" from="376666931#0" to="384030401#2" type="passenger"/>
    <trip id="100" depart="356.78" from="-464445691#3" to="376666930#2" type="passenger"/>
    <trip id="101" depart="360.34" from="-631259843" to="516163750#1" type="passenger"/>
    <trip id="102" depart="363.91" from="218962181" to="-516163750#0" type="passenger"/>
    <trip id="103" depart="367.48" from="516163750#1" to="516163750#1" type="passenger"/>
    <trip id="104" depart="371.05" from="1206220503#0" to="1206223946#1" type="passenger"/>
    <trip id="105" depart="374.62" from="384030401#1" to="-376666931#3" type="passenger"/>
    <trip id="106" depart="378.18" from="-376666932#1" to="1206220503#1" type="passenger"/>
    <trip id="107" depart="381.75" from="376666921" to="-778973690" type="passenger"/>
    <trip id="108" depart="385.32" from="-516163750#0" to="376666930#2" type="passenger"/>
    <trip id="109" depart="388.89" from="376666932#0" to="-1339655668" type="passenger"/>
    <trip id="110" depart="392.45" from="-376666916#0" to="384030401#1" type="passenger"/>
    <trip id="111" depart="396.02" from="1339655668" to="464445691#1" type="passenger"/>
    <trip id="112" depart="399.59" from="-224260190#1" to="516163750#1" type="passenger"/>
    <trip id="113" depart="403.16" from="-516163750#0" to="-376666931#4" type="passenger"/>
    <trip id="114" depart="406.73" from="-224260190#3" to="-376666931#3" type="passenger"/>
    <trip id="115" depart="410.29" from="1206220503#0" to="333554718" type="passenger"/>
    <trip id="116" depart="413.86" from="376666931#2" to="-376666931#0" type="passenger"/>
    <trip id="117" depart="417.43" from="913268036" to="1206220504#1" type="passenger"/>
    <trip id="118" depart="421.00" from="-516163750#1" to="-516163750#1" type="passenger"/>
    <trip id="119" depart="424.56" from="1206220503#1" to="376666930#2" type="passenger"/>
    <trip id="120" depart="428.13" from="1339655668" to="384030401#0" type="passenger"/>
    <trip id="121" depart="431.70" from="778973690" to="376666916#2" type="passenger"/>
    <trip id="122" depart="435.27" from="516163750#1" to="384030401#0" type="passenger"/>
    <trip id="123" depart="438.84" from="-224260190#0" to="585341906#2" type="passenger"/>
    <trip id="124" depart="442.40" from="585352852#1" to="619147740" type="passenger"/>
    <trip id="125" depart="445.97" from="516163750#1" to="219696191#1" type="passenger"/>
    <trip id="126" depart="449.54" from="-376666916#2" to="-778973690" type="passenger"/>
    <trip id="127" depart="453.11" from="-376666930#0" to="224260190#2" type="passenger"/>
    <trip id="128" depart="456.67" from="-384030401#1" to="-1339655668" type="passenger"/>
    <trip id="129" depart="460.24" from="331990404#3" to="631259844" type="passenger"/>
    <trip id="130" depart="463.81" from="-376666916#0" to="224260190#1" type="passenger"/>
    <trip id="131" depart="467.38" from="-376666930#2" to="-376666916#0" type="passenger"/>
    <trip id="132" depart="470.95" from="376666931#2" to="464445692#0" type="passenger"/>
    <trip id="133" depart="474.51" from="1206220507#0" to="1206220503#1" type="passenger"/>
    <trip id="134" depart="478.08" from="464445692#0" to="585341906#0" type="passenger"/>
    <trip id="135" depart="481.65" from="1339655668" to="516163750#0" type="passenger"/>
    <trip id="136" depart="485.22" from="376666932#1" to="376666930#1" type="passenger"/>
    <trip id="137" depart="488.78" from="464445692#1" to="1206220503#1" type="passenger"/>
    <trip id="138" depart="492.35" from="1206220504#1" to="376666916#1" type="passenger"/>
    <trip id="139" depart="495.92" from="-376666916#2" to="585341907#2" type="passenger"/>
    <trip id="140" depart="499.49" from="1206220507#0" to="516163750#1" type="passenger"/>
    <trip id="141" depart="503.06" from="464445692#0" to="464445691#1" type="passenger"/>
    <trip id="142" depart="506.62" from="-376666916#2" to="1206220503#1" type="passenger"/>
    <trip id="143" depart="510.19" from="376666932#1" to="-224260190#0" type="passenger"/>
    <trip id="144" depart="513.76" from="218962181" to="-376666931#4" type="passenger"/>
    <trip id="145" depart="517.33" from="331990404#0" to="-376666930#2" type="passenger"/>
    <trip id="146" depart="520.89" from="464445691#1" to="585341907#0" type="passenger"/>
    <trip id="147" depart="524.46" from="376666930#2" to="376666916#0" type="passenger"/>
    <trip id="148" depart="528.03" from="376666930#0" to="219696191#1" type="passenger"/>
    <trip id="149" depart="531.60" from="1206220503#0" to="37402371" type="passenger"/>
    <trip id="150" depart="535.17" from="913268036" to="585341907#2" type="passenger"/>
    <trip id="151" depart="538.73" from="1206220503#0" to="1206220503#0" type="passenger"/>
    <trip id="152" depart="542.30" from="224260190#2" to="224260190#0" type="passenger"/>
    <trip id="153" depart="545.87" from="-224260190#0" to="376666916#0" type="passenger"/>
    <trip id="154" depart="549.44" from="376666931#1" to="37402371" type="passenger"/>
    <trip id="155" depart="553.00" from="-1339655668" to="376666916#1" type="passenger"/>
    <trip id="156" depart="556.57" from="615671505#0" to="376666932#1" type="passenger"/>
    <trip id="157" depart="560.14" from="-384030401#1" to="224260190#0" type="passenger"/>
    <trip id="158" depart="563.71" from="-464445691#3" to="-376666921" type="passenger"/>
    <trip id="159" depart="567.28" from="-376666921" to="585341906#2" type="passenger"/>
    <trip id="160" depart="570.84" from="-631259844" to="376666931#4" type="passenger"/>
    <trip id="161" depart="574.41" from="1339655668" to="-224260190#0" type="passenger"/>
    <trip id="162" depart="577.98" from="-376666916#1" to="-376666930#2" type="passenger"/>
    <trip id="163" depart="581.55" from="464445692#1" to="384030401#0" type="passenger"/>
    <trip id="164" depart="585.11" from="-384030401#2" to="376666916#2" type="passenger"/>
    <trip id="165" depart="588.68" from="1206220504#0" to="516163750#1" type="passenger"/>
    <trip id="166" depart="592.25" from="-384030401#0" to="-224260190#0" type="passenger"/>
    <trip id="167" depart="595.82" from="585352852#0-AddedOffRampEdge" to="1206220503#0" type="passenger"/>
    <trip id="168" depart="599.39" from="376666916#0" to="767111811#2" type="passenger"/>
    <trip id="169" depart="602.95" from="-384030401#0" to="-516163750#1" type="passenger"/>
    <trip id="170" depart="606.52" from="-651817398#3" to="-651817398#0" type="passenger"/>
    <trip id="171" depart="610.09" from="-778973690" to="384030401#1" type="passenger"/>
    <trip id="172" depart="613.66" from="-376666930#1" to="376666930#0" type="passenger"/>
    <trip id="173" depart="617.22" from="-376666916#0" to="1339655668" type="passenger"/>
    <trip id="174" depart="620.79" from="-384030401#0" to="585341906#2" type="passenger"/>
    <trip id="175" depart="624.36" from="1206220504#0" to="585341907#0" type="passenger"/>
    <trip id="176" depart="627.93" from="376666930#2" to="516163750#0" type="passenger"/>
    <trip id="177" depart="631.50" from="376666932#0" to="516163750#1" type="passenger"/>
    <trip id="178" depart="635.06" from="1206220503#0" to="-376666931#4" type="passenger"/>
    <trip id="179" depart="638.63" from="-464445691#0" to="585341906#0" type="passenger"/>
    <trip id="180" depart="642.20" from="-376666930#1" to="464445692#0" type="passenger"/>
    <trip id="181" depart="645.77" from="-224260190#3" to="-1339655669" type="passenger"/>
    <trip id="182" depart="649.33" from="376666932#0" to="464445691#0" type="passenger"/>
    <trip id="183" depart="652.90" from="376666931#1" to="464445691#0" type="passenger"/>
    <trip id="184" depart="656.47" from="464445691#0" to="-384030401#1" type="passenger"/>
    <trip id="185" depart="660.04" from="-376666930#1" to="1206220503#0" type="passenger"/>
    <trip id="186" depart="663.61" from="333554718" to="767111811#2" type="passenger"/>
    <trip id="187" depart="667.17" from="778973690" to="631259844" type="passenger"/>
    <trip id="188" depart="670.74" from="-631259843" to="-376666931#0" type="passenger"/>
    <trip id="189" depart="674.31" from="-384030401#2" to="1206220503#1" type="passenger"/>
    <trip id="190" depart="677.88" from="218962181" to="219696191#0" type="passenger"/>
    <trip id="191" depart="681.44" from="376666916#0" to="384030401#2" type="passenger"/>
    <trip id="192" depart="685.01" from="-1339655668" to="-376666931#0" type="passenger"/>
    <trip id="193" depart="688.58" from="376666932#1" to="464445691#3" type="passenger"/>
    <trip id="194" depart="692.15" from="516163750#1" to="464445691#0" type="passenger"/>
    <trip id="195" depart="695.72" from="-224260190#0" to="384030401#2" type="passenger"/>
    <trip id="196" depart="699.28" from="333554718" to="619147740" type="passenger"/>
    <trip id="197" depart="702.85" from="-224260190#3" to="-1339655668" type="passenger"/>
    <trip id="198" depart="706.42" from="-631259844" to="778973690" type="passenger"/>
    <trip id="199" depart="709.99" from="-376666916#2" to="376666921" type="passenger"/>
    <trip id="200" depart="713.55" from="-376666916#1" to="-224260190#0" type="passenger"/>
    <trip id="201" depart="717.12" from="-376666931#3" to="767111811#1" type="passenger"/>
    <trip id="202" depart="720.69" from="376666931#1" to="464445692#0" type="passenger"/>
    <trip id="203" depart="724.26" from="376666931#1" to="-778973690" type="passenger"/>
    <trip id="204" depart="727.83" from="-224260190#0" to="-1339655669" type="passenger"/>
    <trip id="205" depart="731.39" from="224260190#1" to="464445691#3" type="passenger"/>
    <trip id="206" depart="734.96" from="376666916#0" to="384030401#1" type="passenger"/>
    <trip id="207" depart="738.53" from="651817398#2" to="651817398#2" type="passenger"/>
    <trip id="208" depart="742.10" from="376666921" to="384030401#0" type="passenger"/>
    <trip id="209" depart="745.66" from="224260190#2" to="376666916#1" type="passenger"/>
    <trip id="210" depart="749.23" from="224260190#0" to="376666921" type="passenger"/>
    <trip id="211" depart="752.80" from="1206220503#0" to="-1339655668" type="passenger"/>
    <trip id="212" depart="756.37" from="-376666916#2" to="-224260190#2" type="passenger"/>
    <trip id="213" depart="759.94" from="464445692#0" to="585341906#2" type="passenger"/>
    <trip id="214" depart="763.50" from="-224260190#1" to="37402371" type="passenger"/>
    <trip id="215" depart="767.07" from="464445692#0" to="585341907#2" type="passenger"/>
    <trip id="216" depart="770.64" from="224260190#2" to="-376666931#3" type="passenger"/>
    <trip id="217" depart="774.21" from="464445692#1" to="333554718" type="passenger"/>
    <trip id="218" depart="777.77" from="1206220503#0" to="-376666930#0" type="passenger"/>
    <trip id="219" depart="781.34" from="-516163750#1" to="376666930#2" type="passenger"/>
    <trip id="220" depart="784.91" from="-631259843" to="-376666930#1" type="passenger"/>
    <trip id="221" depart="788.48" from="913268036" to="585341907#2" type="passenger"/>
    <trip id="222" depart="792.05" from="331990404#1" to="219696191#1" type="passenger"/>
    <trip id="223" depart="795.61" from="-224260190#1" to="333554718" type="passenger"/>
    <trip id="224" depart="799.18" from="224260190#2" to="-778973690" type="passenger"/>
    <trip id="225" depart="802.75" from="376666931#1" to="767111811#2" type="passenger"/>
    <trip id="226" depart="806.32" from="-224260190#1" to="-376666932#1" type="passenger"/>
    <trip id="227" depart="809.88" from="-376666930#2" to="376666916#1" type="passenger"/>
    <trip id="228" depart="813.45" from="516163750#0" to="-1339655669" type="passenger"/>
    <trip id="229" depart="817.02" from="-376666916#2" to="-384030401#0" type="passenger"/>
    <trip id="230" depart="820.59" from="516163750#1" to="376666930#0" type="passenger"/>
    <trip id="231" depart="824.16" from="-376666916#0" to="384030401#0" type="passenger"/>
    <trip id="232" depart="827.72" from="585352852#0" to="219696191#1" type="passenger"/>
    <trip id="233" depart="831.29" from="516163750#1" to="-516163750#0" type="passenger"/>
    <trip id="234" depart="834.86" from="-384030401#0" to="219696191#0" type="passenger"/>
    <trip id="235" depart="838.43" from="-376666916#2" to="-376666921" type="passenger"/>
    <trip id="236" depart="841.99" from="376666931#1" to="219696191#1" type="passenger"/>
    <trip id="237" depart="845.56" from="-516163750#0" to="1206220503#0" type="passenger"/>
    <trip id="238" depart="849.13" from="376666932#0" to="631259843" type="passenger"/>
    <trip id="239" depart="852.70" from="224260190#2" to="464445692#0" type="passenger"/>
    <trip id="240" depart="856.26" from="585352852#0" to="585341907#2" type="passenger"/>
    <trip id="241" depart="859.83" from="-376666921" to="516163750#1" type="passenger"/>
    <trip id="242" depart="863.40" from="-224260190#3" to="-376666930#1" type="passenger"/>
    <trip id="243" depart="866.97" from="376666930#2" to="384030401#0" type="passenger"/>
    <trip id="244" depart="870.54" from="464445692#0" to="-516163750#1" type="passenger"/>
    <trip id="245" depart="874.10" from="376666932#1" to="219696191#1" type="passenger"/>
    <trip id="246" depart="877.67" from="-224260190#0" to="464445691#0" type="passenger"/>
    <trip id="247" depart="881.24" from="1206220504#1" to="-376666931#0" type="passenger"/>
    <trip id="248" depart="884.81" from="-384030401#1" to="516163750#0" type="passenger"/>
    <trip id="249" depart="888.37" from="1206220503#0" to="376666930#1" type="passenger"/>
    <trip id="250" depart="891.94" from="224260190#1" to="224260190#3" type="passenger"/>
    <trip id="251" depart="895.51" from="224260190#2" to="-1339655669" type="passenger"/>
    <trip id="252" depart="899.08" from="-1339655668" to="767111811#2" type="passenger"/>
    <trip id="253" depart="902.65" from="-376666921" to="219696191#0" type="passenger"/>
    <trip id="254" depart="906.21" from="585352852#0" to="585341906#2" type="passenger"/>
    <trip id="255" depart="909.78" from="376666931#1" to="464445691#1" type="passenger"/>
    <trip id="256" depart="913.35" from="585352852#0-AddedOffRampEdge" to="1206220504#1" type="passenger"/>
    <trip id="257" depart="916.92" from="376666932#1" to="585341906#2" type="passenger"/>
    <trip id="258" depart="920.48" from="-376666916#2" to="376666931#4" type="passenger"/>
    <trip id="259" depart="924.05" from="464445691#0" to="376666930#2" type="passenger"/>
    <trip id="260" depart="927.62" from="-1339655668" to="-376666916#0" type="passenger"/>
    <trip id="261" depart="931.19" from="1339655669" to="376666931#3" type="passenger"/>
    <trip id="262" depart="934.76" from="376666932#0" to="-224260190#2" type="passenger"/>
    <trip id="263" depart="938.32" from="376666916#0" to="-376666921" type="passenger"/>
    <trip id="264" depart="941.89" from="-376666916#2" to="-516163750#1" type="passenger"/>
    <trip id="265" depart="945.46" from="585352852#0" to="464445692#0" type="passenger"/>
    <trip id="266" depart="949.03" from="464445691#0" to="767111811#1" type="passenger"/>
    <trip id="267" depart="952.59" from="-384030401#0" to="376666931#4" type="passenger"/>
    <trip id="268" depart="956.16" from="-384030401#0" to="767111811#2" type="passenger"/>
    <trip id="269" depart="959.73" from="376666932#1" to="1206220503#0" type="passenger"/>
    <trip id="270" depart="963.30" from="-224260190#0" to="631259843" type="passenger"/>
    <trip id="271" depart="966.87" from="778973690" to="516163750#1" type="passenger"/>
    <trip id="272" depart="970.43" from="-384030401#0" to="-376666930#0" type="passenger"/>
    <trip id="273" depart="974.00" from="376666931#3" to="631259843" type="passenger"/>
    <trip id="274" depart="977.57" from="376666931#2" to="224260190#2" type="passenger"/>
    <trip id="275" depart="981.14" from="-631259844" to="376666930#0" type="passenger"/>
    <trip id="276" depart="984.70" from="1339655669" to="376666916#0" type="passenger"/>
    <trip id="277" depart="988.27" from="376666931#1" to="384030401#0" type="passenger"/>
    <trip id="278" depart="991.84" from="-224260190#0" to="224260190#0" type="passenger"/>
    <trip id="279" depart="995.41" from="331990404#0" to="224260190#0" type="passenger"/>
    <trip id="280" depart="998.98" from="-767111811#1" to="619147740" type="passenger"/>
    <trip id="281" depart="1002.54" from="-376666930#0" to="585341906#0" type="passenger"/>
    <trip id="282" depart="1006.11" from="376666932#1" to="464445691#3" type="passenger"/>
    <trip id="283" depart="1009.68" from="-1339655668" to="631259843" type="passenger"/>
    <trip id="284" depart="1013.25" from="-376666931#4" to="464445692#0" type="passenger"/>
    <trip id="285" depart="1016.81" from="-516163750#1" to="376666916#0" type="passenger"/>
    <trip id="286" depart="1020.38" from="376666930#0" to="-376666931#3" type="passenger"/>
    <trip id="287" depart="1023.95" from="376666932#1" to="224260190#3" type="passenger"/>
    <trip id="288" depart="1027.52" from="464445692#1" to="-384030401#0" type="passenger"/>
    <trip id="289" depart="1031.09" from="913268036" to="-376666921" type="passenger"/>
    <trip id="290" depart="1034.65" from="-224260190#1" to="767111811#2" type="passenger"/>
    <trip id="291" depart="1038.22" from="1206220503#1" to="-384030401#1" type="passenger"/>
    <trip id="292" depart="1041.79" from="651817398#0" to="651817398#2" type="passenger"/>
    <trip id="293" depart="1045.36" from="1206220503#0" to="464445691#3" type="passenger"/>
    <trip id="294" depart="1048.92" from="376666916#0" to="224260190#0" type="passenger"/>
    <trip id="295" depart="1052.49" from="376666932#1" to="376666916#1" type="passenger"/>
    <trip id="296" depart="1056.06" from="-376666916#2" to="-376666931#1" type="passenger"/>
    <trip id="297" depart="1059.63" from="-376666916#0" to="376666931#4" type="passenger"/>
    <trip id="298" depart="1063.20" from="-464445691#3" to="516163750#1" type="passenger"/>
    <trip id="299" depart="1066.76" from="-778973690" to="376666916#2" type="passenger"/>
    <trip id="300" depart="1070.33" from="376666930#0" to="376666916#1" type="passenger"/>
    <trip id="301" depart="1073.90" from="-376666916#1" to="376666931#3" type="passenger"/>
    <trip id="302" depart="1077.47" from="376666932#0" to="-376666932#0" type="passenger"/>
    <trip id="303" depart="1081.03" from="376666921" to="376666932#1" type="passenger"/>
    <trip id="304" depart="1084.60" from="-516163750#1" to="464445691#3" type="passenger"/>
    <trip id="305" depart="1088.17" from="-224260190#3" to="-376666932#1" type="passenger"/>
    <trip id="306" depart="1091.74" from="-651817398#1" to="-651817398#1" type="passenger"/>
    <trip id="307" depart="1095.31" from="384030401#0" to="376666916#0" type="passenger"/>
    <trip id="308" depart="1098.87" from="1339655668" to="376666916#0" type="passenger"/>
    <trip id="309" depart="1102.44" from="1206220504#1" to="-376666930#0" type="passenger"/>
    <trip id="310" depart="1106.01" from="-516163750#0" to="1206223946#1" type="passenger"/>
    <trip id="311" depart="1109.58" from="464445692#1" to="376666916#2" type="passenger"/>
    <trip id="312" depart="1113.14" from="585352852#0-AddedOffRampEdge" to="-376666932#0" type="passenger"/>
    <trip id="313" depart="1116.71" from="376666930#1" to="376666931#3" type="passenger"/>
    <trip id="314" depart="1120.28" from="585352852#0" to="-376666931#0" type="passenger"/>
    <trip id="315" depart="1123.85" from="-376666930#0" to="-224260190#2" type="passenger"/>
    <trip id="316" depart="1127.42" from="331990404#1" to="1206220507#0" type="passenger"/>
    <trip id="317" depart="1130.98" from="-376666931#3" to="-1339655669" type="passenger"/>
    <trip id="318" depart="1134.55" from="-376666921" to="464445692#1" type="passenger"/>
    <trip id="319" depart="1138.12" from="-376666931#4" to="-384030401#1" type="passenger"/>
    <trip id="320" depart="1141.69" from="376666932#0" to="219696191#0" type="passenger"/>
    <trip id="321" depart="1145.25" from="-376666930#1" to="376666921" type="passenger"/>