<?xml version='1.0' encoding='utf-8'?>
<routes>
  <vType id="adult" vClass="pedestrian" minGap="0.25" width="0.5" length="0.25" maxSpeed="1.5" speedDev="0.1" />
  <vType id="elderly" vClass="pedestrian" minGap="0.25" width="0.5" length="0.25" maxSpeed="1.13" speedDev="0.15" color="255,0,0" />
  <person id="ped_0" depart="9.04" type="adult">
    <walk from="778460311#1" to="-315658900#7" />
  </person>
  <person id="ped_1" depart="29.20" type="adult">
    <walk from="778460311#1" to="-315658900#7" />
  </person>
  <person id="ped_2" depart="30.20" type="adult">
    <walk from="778460311#1" to="-315658900#7" />
  </person>
  <person id="ped_3" depart="32.46" type="adult">
    <walk from="778460311#1" to="-315658900#7" />
  </person>
  <person id="ped_4" depart="37.79" type="elderly">
    <walk from="778460311#1" to="-315658900#7" />
  </person>
  <person id="ped_5" depart="39.99" type="adult">
    <walk from="778460311#1" to="-315658900#7" />
  </person>
  <person id="ped_6" depart="57.38" type="elderly">
    <walk from="778460311#1" to="-315658900#7" />
  </person>
  <person id="ped_7" depart="63.16" type="adult">
    <walk from="778460311#1" to="-315658900#7" />
  </person>
  <person id="ped_8" depart="79.01" type="adult">
    <walk from="778460311#1" to="-315658900#7" />
  </person>
  <person id="ped_9" depart="92.30" type="adult">
    <walk from="778460311#1" to="-315658900#7" />
  </person>
  <person id="ped_10" depart="94.26" type="elderly">
    <walk from="778460311#1" to="-315658900#7" />
  </person>
  <person id="ped_11" depart="94.68" type="adult">
    <walk from="778460311#1" to="-315658900#7" />
  </person>
  <person id="ped_12" depart="94.85" type="adult">
    <walk from="778460311#1" to="-315658900#7" />
  </person>
  <person id="ped_13" depart="101.11" type="adult">
    <walk from="778460311#1" to="-315658900#7" />
  </person>
  <person id="ped_14" depart="121.04" type="adult">
    <walk from="778460311#1" to="-315658900#7" />
  </person>
  <person id="ped_15" depart="122.39" type="adult">
    <walk from="778460311#1" to="-315658900#7" />
  </person>
  <person id="ped_16" depart="133.08" type="adult">
    <walk from="778460311#1" to="-315658900#7" />
  </person>
  <person id="ped_17" depart="150.28" type="adult">
    <walk from="778460311#1" to="-315658900#7" />
  </person>
  <person id="ped_18" depart="157.08" type="adult">
    <walk from="778460311#1" to="-315658900#7" />
  </person>
  <person id="ped_19" depart="160.03" type="adult">
    <walk from="778460311#1" to="-315658900#7" />
  </person>
  <person id="ped_20" depart="162.92" type="adult">
    <walk from="778460311#1" to="-315658900#7" />
  </person>
  <person id="ped_21" depart="168.37" type="adult">
    <walk from="778460311#1" to="-315658900#7" />
  </person>
  <person id="ped_22" depart="170.93" type="adult">
    <walk from="778460311#1" to="-315658900#7" />
  </person>
  <person id="ped_23" depart="180.35" type="adult">
    <walk from="778460311#1" to="-315658900#7" />
  </person>
  <person id="ped_24" depart="182.92" type="adult">
    <walk from="778460311#1" to="-315658900#7" />
  </person>
  <person id="ped_25" depart="191.56" type="adult">
    <walk from="778460311#1" to="-315658900#7" />
  </person>
  <person id="ped_26" depart="194.14" type="elderly">
    <walk from="778460311#1" to="-315658900#7" />
  </person>
  <person id="ped_27" depart="215.93" type="elderly">
    <walk from="778460311#1" to="-315658900#7" />
  </person>
  <person id="ped_28" depart="229.85" type="adult">
    <walk from="778460311#1" to="-315658900#7" />
  </person>
  <person id="ped_29" depart="246.81" type="elderly">
    <walk from="778460311#1" to="-315658900#7" />
  </person>
  <person id="ped_30" depart="247.81" type="elderly">
    <walk from="778460311#1" to="-315658900#7" />
  </person>
  <person id="ped_31" depart="247.85" type="adult">
    <walk from="778460311#1" to="-315658900#7" />
  </person>
  <person id="ped_32" depart="271.86" type="adult">
    <walk from="778460311#1" to="-315658900#7" />
  </person>
  <person id="ped_33" depart="272.08" type="adult">
    <walk from="778460311#1" to="-315658900#7" />
  </person>
  <person id="ped_34" depart="272.92" type="adult">
    <walk from="778460311#1" to="-315658900#7" />
  </person>
  <person id="ped_35" depart="284.15" type="adult">
    <walk from="778460311#1" to="-315658900#7" />
  </person>
  <person id="ped_36" depart="284.33" type="adult">
    <walk from="778460311#1" to="-315658900#7" />
  </person>
  <person id="ped_37" depart="301.19" type="adult">
    <walk from="778460311#1" to="-315658900#7" />
  </person>
  <person id="ped_38" depart="309.11" type="adult">
    <walk from="778460311#1" to="-315658900#7" />
  </person>
  <person id="ped_39" depart="310.42" type="adult">
    <walk from="778460311#1" to="-315658900#7" />
  </person>
  <person id="ped_40" depart="312.96" type="elderly">
    <walk from="778460311#1" to="-315658900#7" />
  </person>
  <person id="ped_41" depart="319.70" type="elderly">
    <walk from="778460311#1" to="-315658900#7" />
  </person>
  <person id="ped_42" depart="320.58" type="adult">
    <walk from="778460311#1" to="-315658900#7" />
  </person>
  <person id="ped_43" depart="337.21" type="adult">
    <walk from="778460311#1" to="-315658900#7" />
  </person>
  <person id="ped_44" depart="347.56" type="adult">
    <walk from="778460311#1" to="-315658900#7" />
  </person>
  <person id="ped_45" depart="355.64" type="adult">
    <walk from="778460311#1" to="-315658900#7" />
  </person>
  <person id="ped_46" depart="357.91" type="adult">
    <walk from="778460311#1" to="-315658900#7" />
  </person>
  <person id="ped_47" depart="358.61" type="adult">
    <walk from="778460311#1" to="-315658900#7" />
  </person>
  <person id="ped_48" depart="359.96" type="elderly">
    <walk from="778460311#1" to="-315658900#7" />
  </person>
  <person id="ped_49" depart="366.90" type="adult">
    <walk from="778460311#1" to="-315658900#7" />
  </person>
  <person id="ped_50" depart="379.08" type="adult">
    <walk from="778460311#1" to="-315658900#7" />
  </person>
  <person id="ped_51" depart="379.11" type="adult">
    <walk from="778460311#1" to="-315658900#7" />
  </person>
  <person id="ped_52" depart="392.48" type="adult">
    <walk from="778460311#1" to="-315658900#7" />
  </person>
  <person id="ped_53" depart="401.11" type="adult">
    <walk from="778460311#1" to="-315658900#7" />
  </person>
  <person id="ped_54" depart="416.97" type="adult">
    <walk from="778460311#1" to="-315658900#7" />
  </person>
  <person id="ped_55" depart="421.29" type="elderly">
    <walk from="778460311#1" to="-315658900#7" />
  </person>
  <person id="ped_56" depart="426.54" type="adult">
    <walk from="778460311#1" to="-315658900#7" />
  </person>
  <person id="ped_57" depart="429.33" type="adult">
    <walk from="778460311#1" to="-315658900#7" />
  </person>
  <person id="ped_58" depart="446.13" type="adult">
    <walk from="778460311#1" to="-315658900#7" />
  </person>
  <person id="ped_59" depart="452.30" type="adult">
    <walk from="778460311#1" to="-315658900#7" />
  </person>
  <person id="ped_60" depart="457.21" type="elderly">
    <walk from="778460311#1" to="-315658900#7" />
  </person>
  <person id="ped_61" depart="459.30" type="adult">
    <walk from="778460311#1" to="-315658900#7" />
  </person>
  <person id="ped_62" depart="468.19" type="adult">
    <walk from="778460311#1" to="-315658900#7" />
  </person>
  <person id="ped_63" depart="473.80" type="elderly">
    <walk from="778460311#1" to="-315658900#7" />
  </person>
  <person id="ped_64" depart="474.83" type="adult">
    <walk from="778460311#1" to="-315658900#7" />
  </person>
  <person id="ped_65" depart="482.31" type="elderly">
    <walk from="778460311#1" to="-315658900#7" />
  </person>
  <person id="ped_66" depart="496.85" type="adult">
    <walk from="778460311#1" to="-315658900#7" />
  </person>
  <person id="ped_67" depart="503.86" type="adult">
    <walk from="778460311#1" to="-315658900#7" />
  </person>
  <person id="ped_68" depart="513.04" type="adult">
    <walk from="778460311#1" to="-315658900#7" />
  </person>
  <person id="ped_69" depart="515.71" type="adult">
    <walk from="778460311#1" to="-315658900#7" />
  </person>
  <person id="ped_70" depart="521.51" type="adult">
    <walk from="778460311#1" to="-315658900#7" />
  </person>
  <person id="ped_71" depart="524.43" type="adult">
    <walk from="778460311#1" to="-315658900#7" />
  </person>
  <person id="ped_72" depart="536.37" type="adult">
    <walk from="778460311#1" to="-315658900#7" />
  </person>
  <person id="ped_73" depart="538.85" type="adult">
    <walk from="778460311#1" to="-315658900#7" />
  </person>
  <person id="ped_74" depart="539.58" type="adult">
    <walk from="778460311#1" to="-315658900#7" />
  </person>
  <person id="ped_75" depart="544.00" type="adult">
    <walk from="778460311#1" to="-315658900#7" />
  </person>
  <person id="ped_76" depart="552.08" type="elderly">
    <walk from="778460311#1" to="-315658900#7" />
  </person>
  <person id="ped_77" depart="554.54" type="adult">
    <walk from="778460311#1" to="-315658900#7" />
  </person>
  <person id="ped_78" depart="564.60" type="adult">
    <walk from="778460311#1" to="-315658900#7" />
  </person>
  <person id="ped_79" depart="566.00" type="elderly">
    <walk from="778460311#1" to="-315658900#7" />
  </person>
  <person id="ped_80" depart="566.33" type="adult">
    <walk from="778460311#1" to="-315658900#7" />
  </person>
  <person id="ped_81" depart="567.60" type="adult">
    <walk from="778460311#1" to="-315658900#7" />
  </person>
  <person id="ped_82" depart="569.22" type="adult">
    <walk from="778460311#1" to="-315658900#7" />
  </person>
  <person id="ped_83" depart="578.44" type="adult">
    <walk from="778460311#1" to="-315658900#7" />
  </person>
  <person id="ped_84" depart="583.47" type="elderly">
    <walk from="778460311#1" to="-315658900#7" />
  </person>
  <person id="ped_85" depart="587.40" type="adult">
    <walk from="778460311#1" to="-315658900#7" />
  </person>
  <person id="ped_86" depart="613.73" type="adult">
    <walk from="778460311#1" to="-315658900#7" />
  </person>
  <person id="ped_87" depart="615.44" type="adult">
    <walk from="778460311#1" to="-315658900#7" />
  </person>
  <person id="ped_88" depart="622.63" type="elderly">
    <walk from="778460311#1" to="-315658900#7" />
  </person>
  <person id="ped_89" depart="632.36" type="adult">
    <walk from="778460311#1" to="-315658900#7" />
  </person>
  <person id="ped_90" depart="652.66" type="elderly">
    <walk from="778460311#1" to="-315658900#7" />
  </person>
  <person id="ped_91" depart="664.14" type="adult">
    <walk from="778460311#1" to="-315658900#7" />
  </person>
  <person id="ped_92" depart="664.99" type="elderly">
    <walk from="778460311#1" to="-315658900#7" />
  </person>
  <person id="ped_93" depart="674.57" type="elderly">
    <walk from="778460311#1" to="-315658900#7" />
  </person>
  <person id="ped_94" depart="677.98" type="adult">
    <walk from="778460311#1" to="-315658900#7" />
  </person>
  <person id="ped_95" depart="678.94" type="adult">
    <walk from="778460311#1" to="-315658900#7" />
  </person>
  <person id="ped_96" depart="690.58" type="elderly">
    <walk from="778460311#1" to="-315658900#7" />
  </person>
  <person id="ped_97" depart="691.72" type="adult">
    <walk from="778460311#1" to="-315658900#7" />
  </person>
  <person id="ped_98" depart="691.78" type="elderly">
    <walk from="778460311#1" to="-315658900#7" />
  </person>
  <person id="ped_99" depart="697.54" type="adult">
    <walk from="778460311#1" to="-315658900#7" />
  </person>
  <person id="ped_100" depart="702.60" type="elderly">
    <walk from="778460311#1" to="-315658900#7" />
  </person>
  <person id="ped_101" depart="703.81" type="adult">
    <walk from="778460311#1" to="-315658900#7" />
  </person>
  <person id="ped_102" depart="707.58" type="elderly">
    <walk from="778460311#1" to="-315658900#7" />
  </person>
  <person id="ped_103" depart="724.18" type="adult">
    <walk from="778460311#1" to="-315658900#7" />
  </person>
  <person id="ped_104" depart="740.52" type="elderly">
    <walk from="778460311#1" to="-315658900#7" />
  </person>
  <person id="ped_105" depart="742.77" type="adult">
    <walk from="778460311#1" to="-315658900#7" />
  </person>
  <person id="ped_106" depart="742.85" type="elderly">
    <walk from="778460311#1" to="-315658900#7" />
  </person>
  <person id="ped_107" depart="749.50" type="elderly">
    <walk from="778460311#1" to="-315658900#7" />
  </person>
  <person id="ped_108" depart="753.23" type="elderly">
    <walk from="778460311#1" to="-315658900#7" />
  </person>
  <person id="ped_109" depart="753.44" type="adult">
    <walk from="778460311#1" to="-315658900#7" />
  </person>
  <person id="ped_110" depart="753.83" type="adult">
    <walk from="778460311#1" to="-315658900#7" />
  </person>
  <person id="ped_111" depart="753.87" type="elderly">
    <walk from="778460311#1" to="-315658900#7" />
  </person>
  <person id="ped_112" depart="762.07" type="adult">
    <walk from="778460311#1" to="-315658900#7" />
  </person>
  <person id="ped_113" depart="765.39" type="elderly">
    <walk from="778460311#1" to="-315658900#7" />
  </person>
  <person id="ped_114" depart="769.89" type="elderly">
    <walk from="778460311#1" to="-315658900#7" />
  </person>
  <person id="ped_115" depart="792.54" type="elderly">
    <walk from="778460311#1" to="-315658900#7" />
  </person>
  <person id="ped_116" depart="803.22" type="elderly">
    <walk from="778460311#1" to="-315658900#7" />
  </person>
  <person id="ped_117" depart="818.19" type="adult">
    <walk from="778460311#1" to="-315658900#7" />
  </person>
  <person id="ped_118" depart="822.45" type="adult">
    <walk from="778460311#1" to="-315658900#7" />
  </person>
  <person id="ped_119" depart="824.80" type="adult">
    <walk from="778460311#1" to="-315658900#7" />
  </person>
  <person id="ped_120" depart="837.59" type="adult">
    <walk from="778460311#1" to="-315658900#7" />
  </person>
  <person id="ped_121" depart="837.92" type="adult">
    <walk from="778460311#1" to="-315658900#7" />
  </person>
  <person id="ped_122" depart="838.97" type="adult">
    <walk from="778460311#1" to="-315658900#7" />
  </person>
  <person id="ped_123" depart="845.70" type="elderly">
    <walk from="778460311#1" to="-315658900#7" />
  </person>
  <person id="ped_124" depart="864.76" type="adult">
    <walk from="778460311#1" to="-315658900#7" />
  </person>
  <person id="ped_125" depart="869.52" type="adult">
    <walk from="778460311#1" to="-315658900#7" />
  </person>
  <person id="ped_126" depart="880.32" type="elderly">
    <walk from="778460311#1" to="-315658900#7" />
  </person>
  <person id="ped_127" depart="884.77" type="adult">
    <walk from="778460311#1" to="-315658900#7" />
  </person>
  <person id="ped_128" depart="892.88" type="adult">
    <walk from="778460311#1" to="-315658900#7" />
  </person>
  <person id="ped_129" depart="908.69" type="elderly">
    <walk from="778460311#1" to="-315658900#7" />
  </person>
  <person id="ped_130" depart="921.61" type="adult">
    <walk from="778460311#1" to="-315658900#7" />
  </person>
  <person id="ped_131" depart="926.27" type="elderly">
    <walk from="778460311#1" to="-315658900#7" />
  </person>
  <person id="ped_132" depart="934.87" type="adult">
    <walk from="778460311#1" to="-315658900#7" />
  </person>
  <person id="ped_133" depart="943.84" type="elderly">
    <walk from="778460311#1" to="-315658900#7" />
  </person>
  <person id="ped_134" depart="946.41" type="adult">
    <walk from="778460311#1" to="-315658900#7" />
  </person>
  <person id="ped_135" depart="950.75" type="elderly">
    <walk from="778460311#1" to="-315658900#7" />
  </person>
  <person id="ped_136" depart="960.84" type="adult">
    <walk from="778460311#1" to="-315658900#7" />
  </person>
  <person id="ped_137" depart="980.86" type="adult">
    <walk from="778460311#1" to="-315658900#7" />
  </person>
  <person id="ped_138" depart="988.90" type="adult">
    <walk from="778460311#1" to="-315658900#7" />
  </person>
  <person id="ped_139" depart="992.80" type="adult">
    <walk from="778460311#1" to="-315658900#7" />
  </person>
  <person id="ped_140" depart="994.35" type="elderly">
    <walk from="778460311#1" to="-315658900#7" />
  </person>
  <person id="ped_141" depart="1000.28" type="elderly">
    <walk from="778460311#1" to="-315658900#7" />
  </person>
  <person id="ped_142" depart="1011.40" type="elderly">
    <walk from="778460311#1" to="-315658900#7" />
  </person>
  <person id="ped_143" depart="1065.76" type="adult">
    <walk from="778460311#1" to="-315658900#7" />
  </person>
  <person id="ped_144" depart="1072.00" type="adult">
    <walk from="778460311#1" to="-315658900#7" />
  </person>
  <person id="ped_145" depart="1078.09" type="elderly">
    <walk from="778460311#1" to="-315658900#7" />
  </person>
  <person id="ped_146" depart="1080.85" type="adult">
    <walk from="778460311#1" to="-315658900#7" />
  </person>
  <person id="ped_147" depart="1081.23" type="adult">
    <walk from="778460311#1" to="-315658900#7" />
  </person>
  <person id="ped_148" depart="1087.33" type="elderly">
    <walk from="778460311#1" to="-315658900#7" />
  </person>
  <person id="ped_149" depart="1093.68" type="elderly">
    <walk from="778460311#1" to="-315658900#7" />
  </person>
  <person id="ped_150" depart="1095.22" type="elderly">
    <walk from="778460311#1" to="-315658900#7" />
  </person>
  <person id="ped_151" depart="1097.98" type="adult">
    <walk from="778460311#1" to="-315658900#7" />
  </person>
  <person id="ped_152" depart="1101.02" type="adult">
    <walk from="778460311#1" to="-315658900#7" />
  </person>
  <person id="ped_153" depart="1110.33" type="adult">
    <walk from="778460311#1" to="-315658900#7" />
  </person>
  <person id="ped_154" depart="1116.97" type="elderly">
    <walk from="778460311#1" to="-315658900#7" />
  </person>
  <person id="ped_155" depart="1136.66" type="adult">
    <walk from="778460311#1" to="-315658900#7" />
  </person>
  <person id="ped_156" depart="1140.21" type="adult">
    <walk from="778460311#1" to="-315658900#7" />
  </person>
  <person id="ped_157" depart="1154.89" type="elderly">
    <walk from="778460311#1" to="-315658900#7" />
  </person>
  <person id="ped_158" depart="1156.92" type="adult">
    <walk from="778460311#1" to="-315658900#7" />
  </person>
  <person id="ped_159" depart="1157.30" type="adult">
    <walk from="778460311#1" to="-315658900#7" />
  </person>
  <person id="ped_160" depart="1178.71" type="adult">
    <walk from="778460311#1" to="-315658900#7" />
  </person>
  <person id="ped_161" depart="1183.04" type="adult">
    <walk from="778460311#1" to="-315658900#7" />
  </person>
  <person id="ped_162" depart="1200.85" type="adult">
    <walk from="778460311#1" to="-315658900#7" />
  </person>
  <person id="ped_163" depart="1204.61" type="elderly">
    <walk from="778460311#1" to="-315658900#7" />
  </person>
  <person id="ped_164" depart="1211.18" type="adult">
    <walk from="778460311#1" to="-315658900#7" />
  </person>
  <person id="ped_165" depart="1211.81" type="adult">
    <walk from="778460311#1" to="-315658900#7" />
  </person>
  <person id="ped_166" depart="1224.15" type="adult">
    <walk from="778460311#1" to="-315658900#7" />
  </person>
  <person id="ped_167" depart="1239.29" type="adult">
    <walk from="778460311#1" to="-315658900#7" />
  </person>
  <person id="ped_168" depart="1241.15" type="adult">
    <walk from="778460311#1" to="-315658900#7" />
  </person>
  <person id="ped_169" depart="1243.33" type="adult">
    <walk from="778460311#1" to="-315658900#7" />
  </person>
  <person id="ped_170" depart="1248.06" type="adult">
    <walk from="778460311#1" to="-315658900#7" />
  </person>
  <person id="ped_171" depart="1267.20" type="adult">
    <walk from="778460311#1" to="-315658900#7" />
  </person>
  <person id="ped_172" depart="1268.83" type="adult">
    <walk from="778460311#1" to="-315658900#7" />
  </person>
  <person id="ped_173" depart="1269.71" type="adult">
    <walk from="778460311#1" to="-315658900#7" />
  </person>
  <person id="ped_174" depart="1271.74" type="adult">
    <walk from="778460311#1" to="-315658900#7" />
  </person>
  <person id="ped_175" depart="1276.01" type="adult">
    <walk from="778460311#1" to="-315658900#7" />
  </person>
  <person id="ped_176" depart="1287.27" type="elderly">
    <walk from="778460311#1" to="-315658900#7" />
  </person>
  <person id="ped_177" depart="1290.29" type="adult">
    <walk from="778460311#1" to="-315658900#7" />
  </person>
  <person id="ped_178" depart="1290.87" type="adult">
    <walk from="778460311#1" to="-315658900#7" />
  </person>
  <person id="ped_179" depart="1335.25" type="adult">
    <walk from="778460311#1" to="-315658900#7" />
  </person>
  <person id="ped_180" depart="1348.91" type="elderly">
    <walk from="778460311#1" to="-315658900#7" />
  </person>
  <person id="ped_181" depart="1349.00" type="adult">
    <walk from="778460311#1" to="-315658900#7" />
  </person>
  <person id="ped_182" depart="1351.27" type="adult">
    <walk from="778460311#1" to="-315658900#7" />
  </person>
  <person id="ped_183" depart="1358.96" type="adult">
    <walk from="778460311#1" to="-315658900#7" />
  </person>
  <person id="ped_184" depart="1360.39" type="adult">
    <walk from="778460311#1" to="-315658900#7" />
  </person>
  <person id="ped_185" depart="1362.85" type="adult">
    <walk from="778460311#1" to="-315658900#7" />
  </person>
  <person id="ped_186" depart="1364.72" type="elderly">
    <walk from="778460311#1" to="-315658900#7" />
  </person>
  <person id="ped_187" depart="1365.19" type="adult">
    <walk from="778460311#1" to="-315658900#7" />
  </person>
  <person id="ped_188" depart="1372.93" type="adult">
    <walk from="778460311#1" to="-315658900#7" />
  </person>
  <person id="ped_189" depart="1381.07" type="adult">
    <walk from="778460311#1" to="-315658900#7" />
  </person>
  <person id="ped_190" depart="1409.78" type="adult">
    <walk from="778460311#1" to="-315658900#7" />
  </person>
  <person id="ped_191" depart="1427.43" type="adult">
    <walk from="778460311#1" to="-315658900#7" />
  </person>
  <person id="ped_192" depart="1428.03" type="elderly">
    <walk from="778460311#1" to="-315658900#7" />
  </person>
  <person id="ped_193" depart="1435.21" type="adult">
    <walk from="778460311#1" to="-315658900#7" />
  </person>
  <person id="ped_194" depart="1443.64" type="adult">
    <walk from="778460311#1" to="-315658900#7" />
  </person>
  <person id="ped_195" depart="1460.93" type="adult">
    <walk from="778460311#1" to="-315658900#7" />
  </person>
  <person id="ped_196" depart="1481.78" type="adult">
    <walk from="778460311#1" to="-315658900#7" />
  </person>
  <person id="ped_197" depart="1501.10" type="elderly">
    <walk from="778460311#1" to="-315658900#7" />
  </person>
  <person id="ped_198" depart="1517.42" type="adult">
    <walk from="778460311#1" to="-315658900#7" />
  </person>
  <person id="ped_199" depart="1519.71" type="elderly">
    <walk from="778460311#1" to="-315658900#7" />
  </person>
  <person id="ped_200" depart="1528.70" type="elderly">
    <walk from="778460311#1" to="-315658900#7" />
  </person>
  <person id="ped_201" depart="1537.28" type="adult">
    <walk from="778460311#1" to="-315658900#7" />
  </person>
  <person id="ped_202" depart="1539.53" type="adult">
    <walk from="778460311#1" to="-315658900#7" />
  </person>
  <person id="ped_203" depart="1546.16" type="adult">
    <walk from="778460311#1" to="-315658900#7" />
  </person>
  <person id="ped_204" depart="1546.23" type="adult">
    <walk from="778460311#1" to="-315658900#7" />
  </person>
  <person id="ped_205" depart="1547.46" type="adult">
    <walk from="778460311#1" to="-315658900#7" />
  </person>
  <person id="ped_206" depart="1548.90" type="elderly">
    <walk from="778460311#1" to="-315658900#7" />
  </person>
  <person id="ped_207" depart="1573.32" type="elderly">
    <walk from="778460311#1" to="-315658900#7" />
  </person>
  <person id="ped_208" depart="1578.49" type="elderly">
    <walk from="778460311#1" to="-315658900#7" />
  </person>
  <person id="ped_209" depart="1581.72" type="adult">
    <walk from="778460311#1" to="-315658900#7" />
  </person>
  <person id="ped_210" depart="1582.00" type="adult">
    <walk from="778460311#1" to="-315658900#7" />
  </person>
  <person id="ped_211" depart="1586.87" type="elderly">
    <walk from="778460311#1" to="-315658900#7" />
  </person>
  <person id="ped_212" depart="1606.65" type="adult">
    <walk from="778460311#1" to="-315658900#7" />
  </person>
  <person id="ped_213" depart="1612.12" type="elderly">
    <walk from="778460311#1" to="-315658900#7" />
  </person>
  <person id="ped_214" depart="1630.57" type="adult">
    <walk from="778460311#1" to="-315658900#7" />
  </person>
  <person id="ped_215" depart="1638.00" type="adult">
    <walk from="778460311#1" to="-315658900#7" />
  </person>
  <person id="ped_216" depart="1648.04" type="adult">
    <walk from="778460311#1" to="-315658900#7" />
  </person>
  <person id="ped_217" depart="1656.90" type="elderly">
    <walk from="778460311#1" to="-315658900#7" />
  </person>
  <person id="ped_218" depart="1662.49" type="elderly">
    <walk from="778460311#1" to="-315658900#7" />
  </person>
  <person id="ped_219" depart="1662.50" type="adult">
    <walk from="778460311#1" to="-315658900#7" />
  </person>
  <person id="ped_220" depart="1666.96" type="adult">
    <walk from="778460311#1" to="-315658900#7" />
  </person>
  <person id="ped_221" depart="1682.63" type="adult">
    <walk from="778460311#1" to="-315658900#7" />
  </person>
  <person id="ped_222" depart="1706.07" type="elderly">
    <walk from="778460311#1" to="-315658900#7" />
  </person>
  <person id="ped_223" depart="1715.17" type="adult">
    <walk from="778460311#1" to="-315658900#7" />
  </person>
  <person id="ped_224" depart="1716.22" type="adult">
    <walk from="778460311#1" to="-315658900#7" />
  </person>
  <person id="ped_225" depart="1717.58" type="adult">
    <walk from="778460311#1" to="-315658900#7" />
  </person>
  <person id="ped_226" depart="1724.27" type="elderly">
    <walk from="778460311#1" to="-315658900#7" />
  </person>
  <person id="ped_227" depart="1736.28" type="elderly">
    <walk from="778460311#1" to="-315658900#7" />
  </person>
  <person id="ped_228" depart="1738.44" type="elderly">
    <walk from="778460311#1" to="-315658900#7" />
  </person>
  <person id="ped_229" depart="1739.62" type="elderly">
    <walk from="778460311#1" to="-315658900#7" />
  </person>
  <person id="ped_230" depart="1761.65" type="elderly">
    <walk from="778460311#1" to="-315658900#7" />
  </person>
  <person id="ped_231" depart="1767.74" type="adult">
    <walk from="778460311#1" to="-315658900#7" />
  </person>
  <person id="ped_232" depart="1780.83" type="elderly">
    <walk from="778460311#1" to="-315658900#7" />
  </person>
  <person id="ped_233" depart="1797.58" type="adult">
    <walk from="778460311#1" to="-315658900#7" />
  </person>
  <person id="ped_234" depart="1801.67" type="elderly">
    <walk from="778460311#1" to="-315658900#7" />
  </person>
  <person id="ped_235" depart="1806.46" type="elderly">
    <walk from="778460311#1" to="-315658900#7" />
  </person>
  <person id="ped_236" depart="1810.34" type="adult">
    <walk from="778460311#1" to="-315658900#7" />
  </person>
  <person id="ped_237" depart="1824.48" type="elderly">
    <walk from="778460311#1" to="-315658900#7" />
  </person>
  <person id="ped_238" depart="1828.27" type="adult">
    <walk from="778460311#1" to="-315658900#7" />
  </person>
  <person id="ped_239" depart="1836.49" type="elderly">
    <walk from="778460311#1" to="-315658900#7" />
  </person>
  <person id="ped_240" depart="1836.72" type="adult">
    <walk from="778460311#1" to="-315658900#7" />
  </person>
  <person id="ped_241" depart="1839.01" type="elderly">
    <walk from="778460311#1" to="-315658900#7" />
  </person>
  <person id="ped_242" depart="1853.74" type="adult">
    <walk from="778460311#1" to="-315658900#7" />
  </person>
  <person id="ped_243" depart="1856.14" type="elderly">
    <walk from="778460311#1" to="-315658900#7" />
  </person>
  <person id="ped_244" depart="1870.20" type="adult">
    <walk from="778460311#1" to="-315658900#7" />
  </person>
  <person id="ped_245" depart="1872.99" type="adult">
    <walk from="778460311#1" to="-315658900#7" />
  </person>
  <person id="ped_246" depart="1883.05" type="adult">
    <walk from="778460311#1" to="-315658900#7" />
  </person>
  <person id="ped_247" depart="1890.63" type="elderly">
    <walk from="778460311#1" to="-315658900#7" />
  </person>
  <person id="ped_248" depart="1891.07" type="adult">
    <walk from="778460311#1" to="-315658900#7" />
  </person>
  <person id="ped_249" depart="1891.09" type="elderly">
    <walk from="778460311#1" to="-315658900#7" />
  </person>
  <person id="ped_250" depart="1897.99" type="elderly">
    <walk from="778460311#1" to="-315658900#7" />
  </person>
  <person id="ped_251" depart="1904.75" type="elderly">
    <walk from="778460311#1" to="-315658900#7" />
  </person>
  <person id="ped_252" depart="1910.01" type="adult">
    <walk from="778460311#1" to="-315658900#7" />
  </person>
  <person id="ped_253" depart="1918.48" type="adult">
    <walk from="778460311#1" to="-315658900#7" />
  </person>
  <person id="ped_254" depart="1922.81" type="adult">
    <walk from="778460311#1" to="-315658900#7" />
  </person>
  <person id="ped_255" depart="1940.87" type="adult">
    <walk from="778460311#1" to="-315658900#7" />
  </person>
  <person id="ped_256" depart="1942.35" type="adult">
    <walk from="778460311#1" to="-315658900#7" />