<?xml version="1.0" encoding="UTF-8"?>

<!-- generated on 2026-04-15 03:10:53.542758 by Eclipse SUMO randomTrips.py v1.26.0
<configuration>
    <net-file value="/Users/junlee/Desktop/2026-1/js/result/report_top12_seed4_2h/sumo_nets/cw_6428/network.net.xml"/>
    <output-trip-file value="/Users/junlee/Desktop/2026-1/js/result/report_top12_seed4_2h/sumo_nets/cw_6428/routes_seed44.trips.xml"/>
    <route-file value="/Users/junlee/Desktop/2026-1/js/result/report_top12_seed4_2h/sumo_nets/cw_6428/routes_seed44.rou.xml"/>
    <vehicle-class value="passenger"/>
    <seed value="44"/>
    <end value="7200.0"/>
    <period value="6.887506976121037"/>
</configuration>
-->

<!-- generated on 2026-04-15T03:10:53.521806+09:00 by Eclipse SUMO duarouter 1.26.0
<duarouterConfiguration xmlns:xsi="http://www.w3.org/2001/XMLSchema-instance" xsi:noNamespaceSchemaLocation="http://sumo.dlr.de/xsd/duarouterConfiguration.xsd">

    <input>
        <net-file value="/Users/junlee/Desktop/2026-1/js/result/report_top12_seed4_2h/sumo_nets/cw_6428/network.net.xml"/>
        <route-files value="/Users/junlee/Desktop/2026-1/js/result/report_top12_seed4_2h/sumo_nets/cw_6428/routes_seed44.trips.xml"/>
    </input>

    <output>
        <output-file value="/Users/junlee/Desktop/2026-1/js/result/report_top12_seed4_2h/sumo_nets/cw_6428/routes_seed44.rou.xml"/>
        <alternatives-output value="NUL"/>
    </output>

    <time>
        <begin value="0.0"/>
        <end value="7200.0"/>
    </time>

    <report>
        <no-warnings value="true"/>
        <ignore-errors value="true"/>
        <no-step-log value="true"/>
    </report>

</duarouterConfiguration>
-->

<routes xmlns:xsi="http://www.w3.org/2001/XMLSchema-instance" xsi:noNamespaceSchemaLocation="http://sumo.dlr.de/xsd/routes_file.xsd">
    <vType id="passenger" vClass="passenger"/>
    <vehicle id="0" type="passenger" depart="0.00">
        <route edges="1379887973#0 1379887973#1 1339697074#1 244399270 37399713#1 37399713#2 37399713#3 244399271#1"/>
    </vehicle>
    <vehicle id="1" type="passenger" depart="6.89">
        <route edges="464461045 318747850#1 -243542154#2 464459668#0 464459668#1 464459668#2 -315658900#5"/>
    </vehicle>
    <vehicle id="2" type="passenger" depart="13.78">
        <route edges="-318747850#1 -464461045 243542154#1 464459668#0 464459668#1 464459668#2 -315658900#5 -315658900#4 -464459665 -315658896#4 464459667 315658900#3 315658900#4 315658900#5 -464459668#2 -464459668#1 -464459668#0 -243542154#1 464461045 318747850#1 -243542154#2"/>
    </vehicle>
    <vehicle id="3" type="passenger" depart="20.66">
        <route edges="-315658900#5 -315658900#4 -464459665 -315658896#4 464459667 315658900#3 315658900#4 315658900#5 -464459668#2 -464459668#1 -464459668#0 243542154#2 243542154#3"/>
    </vehicle>
    <vehicle id="4" type="passenger" depart="27.55">
        <route edges="1339697074#1 244399270 37399713#1 37399713#2 37399713#3 244399271#1 773060731 -775222468#2 -775222468#1"/>
    </vehicle>
    <vehicle id="5" type="passenger" depart="34.44">
        <route edges="318747850#0 318747850#1 -243542154#2 464459668#0 464459668#1 464459668#2 -315658900#5 -315658900#4 -464459665 -315658896#4 464459667 315658900#3 315658900#4 315658900#5 -464459668#2"/>
    </vehicle>
    <vehicle id="6" type="passenger" depart="41.33">
        <route edges="315658900#4 315658900#5 -464459668#2 -464459668#1 -464459668#0 -243542154#1 464461045 318747850#1 -243542154#2 464459668#0 464459668#1 464459668#2 -315658900#5 -315658900#4 -315658900#3 -315658900#2 -315658900#1 -315658900#0"/>
    </vehicle>
    <vehicle id="7" type="passenger" depart="48.21">
        <route edges="244399270 37399713#1 37399713#2 37399713#3 244399271#1 773060731"/>
    </vehicle>
    <vehicle id="8" type="passenger" depart="55.10">
        <route edges="-464459667 -315658896#3 -315658896#2 -315658896#1 -315658896#0"/>
    </vehicle>
    <vehicle id="9" type="passenger" depart="61.99">
        <route edges="318747848#1 315658896#1 315658896#2 315658896#3 315658896#4 464459665"/>
    </vehicle>
    <vehicle id="10" type="passenger" depart="68.88">
        <route edges="243542154#0 464461045 318747850#1 -243542154#2"/>
    </vehicle>
    <vehicle id="11" type="passenger" depart="75.76">
        <route edges="37399713#0 37399713#1"/>
    </vehicle>
    <vehicle id="12" type="passenger" depart="82.65">
        <route edges="464459668#1 464459668#2 -315658900#5 -315658900#4 -464459665 -315658896#4 -315658896#3 -315658896#2 -315658896#1 -315658896#0"/>
    </vehicle>
    <vehicle id="13" type="passenger" depart="89.54">
        <route edges="-315658900#5 -315658900#4 -464459665 -315658896#4 -315658896#3 -315658896#2 -315658896#1 -318747848#1"/>
    </vehicle>
    <vehicle id="14" type="passenger" depart="96.43">
        <route edges="-315658900#8 -315658900#7 -315658900#6 -315658900#5 -315658900#4 -315658900#3 -315658900#2 -315658900#1 -315658900#0"/>
    </vehicle>
    <vehicle id="15" type="passenger" depart="103.31">
        <route edges="315658900#3 -464459665 -315658896#4 -315658896#3 -315658896#2 -315658896#1"/>
    </vehicle>
    <vehicle id="16" type="passenger" depart="110.20">
        <route edges="243542154#0 243542154#1 464459668#0 464459668#1 464459668#2 -315658900#5 -315658900#4 -464459665 -315658896#4 -315658896#3 -315658896#2 -315658896#1 -315658896#0"/>
    </vehicle>
    <vehicle id="17" type="passenger" depart="117.09">
        <route edges="315658900#5 -464459668#2 -464459668#1 -464459668#0 -243542154#1 464461045 318747850#1 -243542154#2 464459668#0 464459668#1 464459668#2 -315658900#5 -315658900#4 -315658900#3 -315658900#2 -315658900#1"/>
    </vehicle>
    <vehicle id="18" type="passenger" depart="123.98">
        <route edges="-315658900#7 -315658900#6 -315658900#5 -315658900#4 -464459665 -315658896#4 464459667 315658900#3"/>
    </vehicle>
    <vehicle id="19" type="passenger" depart="130.86">
        <route edges="-464461045 243542154#1 464459668#0 464459668#1 464459668#2 -315658900#5 -315658900#4 -464459665 -315658896#4 464459667 315658900#3"/>
    </vehicle>
    <vehicle id="20" type="passenger" depart="137.75">
        <route edges="-464459668#1 -464459668#0 -243542154#1 -243542154#0"/>
    </vehicle>
    <vehicle id="21" type="passenger" depart="144.64">
        <route edges="-464459668#1 -464459668#0 -243542154#1 464461045 318747850#1 -243542154#2 464459668#0 464459668#1 464459668#2 315658900#6 315658900#7"/>
    </vehicle>
    <vehicle id="22" type="passenger" depart="151.53">
        <route edges="464459668#1 464459668#2 -315658900#5 -315658900#4 -464459665 -315658896#4 464459667"/>
    </vehicle>
    <vehicle id="23" type="passenger" depart="158.41">
        <route edges="-464459668#0 -243542154#1 464461045 318747850#1 -243542154#2 464459668#0 464459668#1 464459668#2 -315658900#5 -315658900#4 -464459665 -315658896#4 -315658896#3 -315658896#2"/>
    </vehicle>
    <vehicle id="24" type="passenger" depart="165.30">
        <route edges="315658896#1 315658896#2 315658896#3 315658896#4 464459665 315658900#4 315658900#5 -464459668#2 -464459668#1 -464459668#0 -243542154#1 464461045 318747850#1 -243542154#2 464459668#0 464459668#1 464459668#2"/>
    </vehicle>
    <vehicle id="25" type="passenger" depart="172.19">
        <route edges="315658896#3 464459667"/>
    </vehicle>
    <vehicle id="26" type="passenger" depart="179.08">
        <route edges="-464459667 315658896#4 464459665 315658900#4 315658900#5 315658900#6 315658900#7 315658900#8"/>
    </vehicle>
    <vehicle id="27" type="passenger" depart="185.96">
        <route edges="315658900#0 315658900#1 315658900#2 -464459667 -315658896#3 -315658896#2"/>
    </vehicle>
    <vehicle id="28" type="passenger" depart="192.85">
        <route edges="-464459667 315658896#4 464459665 315658900#4 315658900#5 -464459668#2 -464459668#1 -464459668#0 243542154#2 -318747850#1 -318747850#0"/>
    </vehicle>
    <vehicle id="29" type="passenger" depart="199.74">
        <route edges="-318747850#1 -464461045 243542154#1 464459668#0 464459668#1 464459668#2 315658900#6 315658900#7"/>
    </vehicle>
    <vehicle id="30" type="passenger" depart="206.63">
        <route edges="-315658900#7 -315658900#6 -464459668#2 -464459668#1 -464459668#0 -243542154#1"/>
    </vehicle>
    <vehicle id="31" type="passenger" depart="213.51">
        <route edges="315658896#0 315658896#1 315658896#2 315658896#3 464459667 315658900#3"/>
    </vehicle>
    <vehicle id="32" type="passenger" depart="220.40">
        <route edges="-464461046 318747850#1 -243542154#2 464459668#0 464459668#1 464459668#2 -315658900#5 -315658900#4 -315658900#3 -315658900#2"/>
    </vehicle>
    <vehicle id="33" type="passenger" depart="227.29">
        <route edges="318747848#1 315658896#1 315658896#2 315658896#3 315658896#4 464459665 315658900#4 315658900#5 315658900#6 315658900#7"/>
    </vehicle>
    <vehicle id="34" type="passenger" depart="234.18">
        <route edges="464459667 315658900#3 315658900#4 315658900#5 -464459668#2 -464459668#1 -464459668#0 -243542154#1"/>
    </vehicle>
    <vehicle id="35" type="passenger" depart="241.06">
        <route edges="-243542154#2 464459668#0 464459668#1 464459668#2 -315658900#5 -315658900#4 -464459665 -315658896#4 -315658896#3 -315658896#2"/>
    </vehicle>
    <vehicle id="36" type="passenger" depart="247.95">
        <route edges="315658900#0 315658900#1 315658900#2 315658900#3 315658900#4 315658900#5 -464459668#2 -464459668#1 -464459668#0 -243542154#1 464461045 318747850#1 -243542154#2 464459668#0 464459668#1"/>
    </vehicle>
    <vehicle id="37" type="passenger" depart="254.84">
        <route edges="1379887973#1 1339697074#1 244399270 37399713#1 37399713#2 37399713#3 244399271#1 394102601 773060732#0 773060732#1"/>
    </vehicle>
    <vehicle id="38" type="passenger" depart="261.73">
        <route edges="-464459667 315658896#4 464459665 315658900#4 315658900#5 -464459668#2 -464459668#1 -464459668#0 -243542154#1 464461045 318747850#1 -243542154#2 464459668#0 464459668#1 464459668#2 -315658900#5 -315658900#4 -464459665"/>
    </vehicle>
    <vehicle id="39" type="passenger" depart="268.61">
        <route edges="1339697075#1 1339697074#0 1339697074#1 379943751"/>
    </vehicle>
    <vehicle id="40" type="passenger" depart="275.50">
        <route edges="318747848#0 318747848#1 315658896#1 315658896#2 315658896#3 315658896#4 464459665 315658900#4 315658900#5 -464459668#2 -464459668#1 -464459668#0 -243542154#1 464461045 318747850#1 -243542154#2 464459668#0 464459668#1 464459668#2 -315658900#5"/>
    </vehicle>
    <vehicle id="41" type="passenger" depart="282.39">
        <route edges="464459665 -315658900#3 -464459667"/>
    </vehicle>
    <vehicle id="42" type="passenger" depart="289.28">
        <route edges="-315658900#8 -315658900#7 -315658900#6 -464459668#2 -464459668#1 -464459668#0 -243542154#1 464461045 318747850#1 -243542154#2 464459668#0"/>
    </vehicle>
    <vehicle id="43" type="passenger" depart="296.16">
        <route edges="-315658900#6 -315658900#5 -315658900#4 -464459665 -315658896#4 -315658896#3 -315658896#2 -315658896#1 -315658896#0"/>
    </vehicle>
    <vehicle id="44" type="passenger" depart="303.05">
        <route edges="-243542154#3 -243542154#2 464459668#0 464459668#1 464459668#2 -315658900#5 -315658900#4 -464459665"/>
    </vehicle>
    <vehicle id="45" type="passenger" depart="309.94">
        <route edges="-464461045 243542154#1 464459668#0 464459668#1 464459668#2 -315658900#5"/>
    </vehicle>
    <vehicle id="46" type="passenger" depart="316.83">
        <route edges="315658896#0 315658896#1 315658896#2 315658896#3 315658896#4 464459665 315658900#4 315658900#5 -464459668#2 -464459668#1 -464459668#0 -243542154#1 -243542154#0"/>
    </vehicle>
    <vehicle id="47" type="passenger" depart="323.71">
        <route edges="315658900#2 315658900#3 315658900#4 315658900#5 -464459668#2 -464459668#1 -464459668#0"/>
    </vehicle>
    <vehicle id="48" type="passenger" depart="330.60">
        <route edges="-464459668#0 243542154#2 -318747850#1 464461046"/>
    </vehicle>
    <vehicle id="49" type="passenger" depart="337.49">
        <route edges="315658900#0 315658900#1 315658900#2 315658900#3 -464459665 -315658896#4 464459667"/>
    </vehicle>
    <vehicle id="50" type="passenger" depart="344.38">
        <route edges="464763971#0 1379887973#0 1379887973#1 1339697074#1 244399270 37399713#1 37399713#2 37399713#3 244399271#1"/>
    </vehicle>
    <vehicle id="51" type="passenger" depart="351.26">
        <route edges="-243542154#3 -243542154#2 -243542154#1 -243542154#0"/>
    </vehicle>
    <vehicle id="52" type="passenger" depart="358.15">
        <route edges="-243542154#2 -243542154#1 464461045 318747850#1"/>
    </vehicle>
    <vehicle id="53" type="passenger" depart="365.04">
        <route edges="243542154#0 243542154#1 464459668#0 464459668#1 464459668#2 315658900#6 315658900#7"/>
    </vehicle>
    <vehicle id="54" type="passenger" depart="371.93">
        <route edges="1339697075#0 1339697075#1 1339697074#0 1339697074#1 244399270 37399713#1 37399713#2 37399713#3 244399271#1 394102601 773060732#0"/>
    </vehicle>
    <vehicle id="55" type="passenger" depart="378.81">
        <route edges="315658900#2 315658900#3 315658900#4 315658900#5 315658900#6"/>
    </vehicle>
    <vehicle id="56" type="passenger" depart="385.70">
        <route edges="315658896#3 464459667 -315658900#2 -315658900#1 -315658900#0"/>
    </vehicle>
    <vehicle id="57" type="passenger" depart="392.59">
        <route edges="-464459668#1 -464459668#0 243542154#2 -318747850#1 -318747850#0"/>
    </vehicle>
    <vehicle id="58" type="passenger" depart="399.48">
        <route edges="-315658896#4 464459667 315658900#3 315658900#4 315658900#5 -464459668#2 -464459668#1 -464459668#0 243542154#2 243542154#3"/>
    </vehicle>
    <vehicle id="59" type="passenger" depart="406.36">
        <route edges="318747850#0 318747850#1 -243542154#2"/>
    </vehicle>
    <vehicle id="60" type="passenger" depart="413.25">
        <route edges="-315658900#8 -315658900#7 -315658900#6 -464459668#2 -464459668#1 -464459668#0 -243542154#1"/>
    </vehicle>
    <vehicle id="61" type="passenger" depart="420.14">
        <route edges="-243542154#2 464459668#0 464459668#1 464459668#2 -315658900#5 -315658900#4 -464459665 -315658896#4 464459667 315658900#3 315658900#4 315658900#5 -464459668#2 -464459668#1 -464459668#0 243542154#2 -318747850#1"/>
    </vehicle>
    <vehicle id="62" type="passenger" depart="427.03">
        <route edges="315658896#3 315658896#4"/>
    </vehicle>
    <vehicle id="63" type="passenger" depart="433.91">
        <route edges="-315658900#5 -315658900#4 -464459665 -315658896#4 -315658896#3 -315658896#2 -315658896#1 -315658896#0"/>
    </vehicle>
    <vehicle id="64" type="passenger" depart="440.80">
        <route edges="-464461046 318747850#1"/>
    </vehicle>
    <vehicle id="65" type="passenger" depart="447.69">
        <route edges="-464459668#2 -464459668#1 -464459668#0 -243542154#1 464461045 318747850#1 -243542154#2 464459668#0 464459668#1 464459668#2 -315658900#5 -315658900#4 -464459665 315658896#5"/>
    </vehicle>
    <vehicle id="66" type="passenger" depart="454.58">
        <route edges="-243542154#2 464459668#0 464459668#1 464459668#2 -315658900#5 -315658900#4 -464459665 -315658896#4 -315658896#3"/>
    </vehicle>
    <vehicle id="67" type="passenger" depart="461.46">
        <route edges="464459668#1 464459668#2 315658900#6 315658900#7 315658900#8"/>
    </vehicle>
    <vehicle id="68" type="passenger" depart="468.35">
        <route edges="315658896#2 315658896#3 315658896#4 464459665 315658900#4 315658900#5 -464459668#2 -769488211"/>
    </vehicle>
    <vehicle id="69" type="passenger" depart="475.24">
        <route edges="-315658896#4 -315658896#3 -315658896#2 -315658896#1 -315658896#0"/>
    </vehicle>
    <vehicle id="70" type="passenger" depart="482.13">
        <route edges="-243542154#1 464461045 318747850#1 -243542154#2 464459668#0 464459668#1 464459668#2 -315658900#5 -315658900#4"/>
    </vehicle>
    <vehicle id="71" type="passenger" depart="489.01">
        <route edges="1379887973#0 1379887973#1 1339697074#1 244399270 37399713#1 37399713#2 37399713#3 244399271#1 773060731 379943747"/>
    </vehicle>
    <vehicle id="72" type="passenger" depart="495.90">
        <route edges="315658896#4 464459665 315658900#4 315658900#5 -464459668#2 -464459668#1 -464459668#0 -243542154#1 -243542154#0"/>
    </vehicle>
    <vehicle id="73" type="passenger" depart="502.79">
        <route edges="775222468#2 379943747 773060732#0 773060732#1 773060732#2"/>
    </vehicle>
    <vehicle id="74" type="passenger" depart="509.68">
        <route edges="-464461046 318747850#1 -243542154#2"/>
    </vehicle>
    <vehicle id="75" type="passenger" depart="516.56">
        <route edges="1379887973#1 1339697074#1"/>
    </vehicle>
    <vehicle id="76" type="passenger" depart="523.45">
        <route edges="-315658896#4 464459667 315658900#3 315658900#4 315658900#5 -464459668#2 -464459668#1 -464459668#0"/>
    </vehicle>
    <vehicle id="77" type="passenger" depart="530.34">
        <route edges="1379887973#0 1379887973#1 1339697074#1 244399270 37399713#1 37399713#2"/>
    </vehicle>
    <vehicle id="78" type="passenger" depart="537.23">
        <route edges="1339697074#1 244399270 37399713#1 37399713#2 37399713#3 244399271#1 773060731 379943747"/>
    </vehicle>
    <vehicle id="79" type="passenger" depart="544.11">
        <route edges="318747850#1 -243542154#2 464459668#0 464459668#1 -769488211"/>
    </vehicle>
    <vehicle id="80" type="passenger" depart="551.00">
        <route edges="464459668#0 464459668#1 464459668#2 -315658900#5 -315658900#4 -464459665 -315658896#4 464459667 315658900#3 315658900#4 315658900#5 -464459668#2 -464459668#1 -464459668#0 -243542154#1"/>
    </vehicle>
    <vehicle id="81" type="passenger" depart="557.89">
        <route edges="-464461046 318747850#1 243542154#3"/>
    </vehicle>
    <vehicle id="82" type="passenger" depart="564.78">
        <route edges="315658900#1 315658900#2 315658900#3 315658900#4 315658900#5 -464459668#2 -464459668#1 -464459668#0 243542154#2 -318747850#1 -318747850#0"/>
    </vehicle>
    <vehicle id="83" type="passenger" depart="571.66">
        <route edges="464459668#2 -315658900#5 -315658900#4 -315658900#3 -464459667"/>
    </vehicle>
    <vehicle id="84" type="passenger" depart="578.55">
        <route edges="-315658896#5 464459665 315658900#4 315658900#5 -464459668#2 -464459668#1 -464459668#0 -243542154#1 464461045"/>
    </vehicle>
    <vehicle id="85" type="passenger" depart="585.44">
        <route edges="-464461046 318747850#1 243542154#3"/>
    </vehicle>
    <vehicle id="86" type="passenger" depart="592.33">
        <route edges="-315658896#4 464459667 315658900#3 315658900#4 315658900#5 315658900#6 315658900#7"/>
    </vehicle>
    <vehicle id="87" type="passenger" depart="599.21">
        <route edges="-464459668#0 -243542154#1 -243542154#0"/>
    </vehicle>
    <vehicle id="88" type="passenger" depart="606.10">
        <route edges="-464459665 -315658896#4 464459667 315658900#3 315658900#4 315658900#5 -464459668#2 -464459668#1 -464459668#0 -243542154#1 464461045"/>
    </vehicle>
    <vehicle id="89" type="passenger" depart="612.99">
        <route edges="-243542154#3 -243542154#2 464459668#0 464459668#1 464459668#2 -315658900#5 -315658900#4 -315658900#3 -315658900#2 -315658900#1"/>
    </vehicle>
    <vehicle id="90" type="passenger" depart="619.88">
        <route edges="773060732#0 773060732#1 773060732#2 773060732#3"/>
    </vehicle>
    <vehicle id="91" type="passenger" depart="626.76">
        <route edges="464459668#2 -315658900#5 -315658900#4 -315658900#3 -464459667 315658896#4 464459665"/>
    </vehicle>
    <vehicle id="92" type="passenger" depart="633.65">
        <route edges="464459668#1 464459668#2 315658900#6 315658900#7"/>
    </vehicle>
    <vehicle id="93" type="passenger" depart="640.54">
        <route edges="243542154#1 464459668#0 464459668#1 464459668#2 -315658900#5 -315658900#4 -464459665 -315658896#4 464459667"/>
    </vehicle>
    <vehicle id="94" type="passenger" depart="647.43">
        <route edges="-315658900#5 -315658900#4 -315658900#3 -464459667 315658896#4"/>
    </vehicle>
    <vehicle id="95" type="passenger" depart="654.31">
        <route edges="-464461046 -464461045"/>
    </vehicle>
    <vehicle id="96" type="passenger" depart="661.20">
        <route edges="-464459668#1 -464459668#0 -243542154#1 464461045 318747850#1 -243542154#2"/>
    </vehicle>
    <vehicle id="97" type="passenger" depart="668.09">
        <route edges="-315658896#5 464459665 315658900#4 315658900#5 315658900#6"/>
    </vehicle>
    <vehicle id="98" type="passenger" depart="674.98">
        <route edges="318747848#0 318747848#1 315658896#1 315658896#2 315658896#3 315658896#4 464459665 315658900#4"/>
    </vehicle>
    <vehicle id="99" type="passenger" depart="681.86">
        <route edges="243542154#0 243542154#1 464459668#0 464459668#1 464459668#2 -315658900#5 -315658900#4 -315658900#3 -464459667 315658896#4"/>
    </vehicle>
    <vehicle id="100" type="passenger" depart="688.75">
        <route edges="1339697075#0 1339697075#1 1339697074#0 1339697074#1 244399270 37399713#1 37399713#2"/>
    </vehicle>
    <vehicle id="101" type="passenger" depart="695.64">
        <route edges="464459667 315658900#3 315658900#4 315658900#5 -464459668#2 -464459668#1 -464459668#0 -243542154#1 464461045 318747850#1 -243542154#2 464459668#0"/>
    </vehicle>
    <vehicle id="102" type="passenger" depart="702.53">
        <route edges="318747848#0 318747848#1 315658896#1 315658896#2 315658896#3 315658896#4 464459665 315658900#4 315658900#5 -464459668#2 -464459668#1 -464459668#0 243542154#2 -318747850#1 -318747850#0"/>
    </vehicle>
    <vehicle id="103" type="passenger" depart="709.41">
        <route edges="-243542154#2 464459668#0 464459668#1 464459668#2 -315658900#5 -315658900#4 -464459665 -315658896#4 -315658896#3 -315658896#2 -315658896#1 -315658896#0"/>
    </vehicle>
    <vehicle id="104" type="passenger" depart="716.30">
        <route edges="-464459668#1 -464459668#0 243542154#2 -318747850#1 -318747850#0"/>
    </vehicle>
    <vehicle id="105" type="passenger" depart="723.19">
        <route edges="-315658900#4 -464459665 -315658896#4 464459667 315658900#3 315658900#4 315658900#5 315658900#6 315658900#7"/>
    </vehicle>
    <vehicle id="106" type="passenger" depart="730.08">
        <route edges="315658900#5 -464459668#2 -464459668#1 -464459668#0 -243542154#1 464461045 318747850#1 -243542154#2 464459668#0 464459668#1 464459668#2 -315658900#5 -315658900#4 -464459665 -315658896#4 -315658896#3 -315658896#2"/>
    </vehicle>
    <vehicle id="107" type="passenger" depart="736.96">
        <route edges="-315658900#3 -315658900#2 -315658900#1 -315658900#0"/>
    </vehicle>
    <vehicle id="108" type="passenger" depart="743.85">
        <route edges="-243542154#3 -243542154#2 464459668#0 464459668#1 464459668#2 -315658900#5 -315658900#4 -315658900#3 -315658900#2 -315658900#1 -315658900#0"/>
    </vehicle>
    <vehicle id="109" type="passenger" depart="750.74">
        <route edges="-464459668#2 -464459668#1 -464459668#0 243542154#2 -318747850#1"/>
    </vehicle>
    <vehicle id="110" type="passenger" depart="757.63">
        <route edges="37399713#2 37399713#3 244399271#1 773060731 -775222468#2"/>
    </vehicle>
    <vehicle id="111" type="passenger" depart="764.51">
        <route edges="315658900#4 315658900#5 -464459668#2 -464459668#1 -464459668#0 -243542154#1 464461045 318747850#1 -243542154#2 464459668#0 464459668#1 464459668#2 -315658900#5 -315658900#4 -315658900#3"/>
    </vehicle>
    <vehicle id="112" type="passenger" depart="771.40">
        <route edges="464459668#0 464459668#1 464459668#2 -315658900#5 -315658900#4 -464459665 -315658896#4 464459667 315658900#3 315658900#4 315658900#5 -464459668#2 -464459668#1 -464459668#0 -243542154#1 464461045 318747850#1 -243542154#2"/>
    </vehicle>
    <vehicle id="113" type="passenger" depart="778.29">
        <route edges="-243542154#1 464461045 318747850#1 -243542154#2 464459668#0 464459668#1 464459668#2 -315658900#5 -315658900#4 -464459665 -315658896#4 464459667 315658900#3 315658900#4 315658900#5 -464459668#2 -464459668#1 -464459668#0"/>
    </vehicle>
    <vehicle id="114" type="passenger" depart="785.18">
        <route edges="1339697074#1 244399270 37399713#1 37399713#2 37399713#3 244399271#1 394102601 773060732#0 773060732#1 773060732#2 773060732#3"/>
    </vehicle>
    <vehicle id="115" type="passenger" depart="792.06">
        <route edges="1339697074#0 1339697074#1 244399270 37399713#1 37399713#2 37399713#3 244399271#1 394102601 773060732#0"/>
    </vehicle>
    <vehicle id="116" type="passenger" depart="798.95">
        <route edges="1379887973#1 1339697074#1"/>
    </vehicle>
    <vehicle id="117" type="passenger" depart="805.84">
        <route edges="-464459665 -315658896#4 464459667 315658900#3 315658900#4 315658900#5 315658900#6"/>
    </vehicle>
    <vehicle id="118" type="passenger" depart="812.73">
        <route edges="-315658900#5 -315658900#4 -464459665 -315658896#4 464459667 315658900#3 315658900#4 315658900#5 -464459668#2 -464459668#1 -464459668#0 -243542154#1 464461045 318747850#1 -243542154#2 464459668#0 464459668#1 464459668#2"/>
    </vehicle>
    <vehicle id="119" type="passenger" depart="819.61">
        <route edges="-315658900#4 -464459665 -315658896#4 464459667 315658900#3 315658900#4 315658900#5 -464459668#2 -464459668#1 -464459668#0 243542154#2 243542154#3"/>
    </vehicle>
    <vehicle id="120" type="passenger" depart="826.50">
        <route edges="775222468#0 775222468#1 775222468#2"/>
    </vehicle>
    <vehicle id="121" type="passenger" depart="833.39">
        <route edges="315658900#5 -464459668#2 -464459668#1 -464459668#0 -243542154#1 464461045 318747850#1 -243542154#2 464459668#0 464459668#1"/>
    </vehicle>
    <vehicle id="122" type="passenger" depart="840.28">
        <route edges="37399713#3 244399271#1 394102601"/>
    </vehicle>
    <vehicle id="123" type="passenger" depart="847.16">
        <route edges="769488211 -464459668#1 -464459668#0 243542154#2 243542154#3"/>
    </vehicle>
    <vehicle id="124" type="passenger" depart="854.05">
        <route edges="-315658896#4 -315658896#3 -315658896#2 -315658896#1"/>
    </vehicle>
    <vehicle id="125" type="passenger" depart="860.94">
        <route edges="318747850#1 -243542154#2 464459668#0 464459668#1 464459668#2 -315658900#5 -315658900#4 -464459665 315658896#5"/>
    </vehicle>
    <vehicle id="126" type="passenger" depart="867.83">
        <route edges="464459668#1 464459668#2 -315658900#5"/>
    </vehicle>
    <vehicle id="127" type="passenger" depart="874.71">
        <route edges="318747850#0 318747850#1 -243542154#2 464459668#0 464459668#1 464459668#2 -315658900#5 -315658900#4 -464459665 -315658896#4 -315658896#3"/>
    </vehicle>
    <vehicle id="128" type="passenger" depart="881.60">
        <route edges="-464461045 243542154#1 464459668#0 464459668#1 464459668#2 -315658900#5 -315658900#4 -464459665 -315658896#4 464459667 315658900#3 315658900#4 315658900#5 -464459668#2 -464459668#1 -464459668#0 -243542154#1 464461045 318747850#1"/>
    </vehicle>
    <vehicle id="129" type="passenger" depart="888.49">
        <route edges="464459668#0 464459668#1 464459668#2 -315658900#5 -315658900#4 -315658900#3 -315658900#2 -315658900#1 -315658900#0"/>
    </vehicle>
    <vehicle id="130" type="passenger" depart="895.38">
        <route edges="243542154#2 -318747850#1 -464461045 243542154#1 464459668#0"/>
    </vehicle>
    <vehicle id="131" type="passenger" depart="902.26">
        <route edges="-315658900#8 -315658900#7 -315658900#6 -315658900#5 -315658900#4 -464459665 315658896#5"/>
    </vehicle>
    <vehicle id="132" type="passenger" depart="909.15">
        <route edges="-464461046 318747850#1 -243542154#2 464459668#0 464459668#1 464459668#2 -315658900#5 -315658900#4 -464459665 -315658896#4 -315658896#3 -315658896#2"/>
    </vehicle>
    <vehicle id="133" type="passenger" depart="916.04">
        <route edges="464461045 318747850#1 -243542154#2 464459668#0 464459668#1 464459668#2 -315658900#5 -315658900#4 -464459665 -315658896#4 464459667 315658900#3 315658900#4 315658900#5 -464459668#2 -464459668#1"/>
    </vehicle>
    <vehicle id="134" type="passenger" depart="922.93">
        <route edges="315658900#3 315658900#4 315658900#5 -464459668#2 -464459668#1 -464459668#0 -243542154#1 464461045 318747850#1 -243542154#2 464459668#0 464459668#1 464459668#2 -315658900#5"/>
    </vehicle>
    <vehicle id="135" type="passenger" depart="929.81">
        <route edges="1379887973#0 1379887973#1 1339697074#1 244399270 37399713#1 37399713#2 37399713#3"/>
    </vehicle>
    <vehicle id="136" type="passenger" depart="936.70">
        <route edges="315658896#3 464459667 315658900#3 -464459665 -315658896#4 -315658896#3"/>
    </vehicle>
    <vehicle id="137" type="passenger" depart="943.59">
        <route edges="315658896#1 315658896#2 315658896#3 315658896#4 464459665 315658900#4 315658900#5 -464459668#2 -464459668#1 -464459668#0 -243542154#1 -243542154#0"/>
    </vehicle>
    <vehicle id="138" type="passenger" depart="950.48">
        <route edges="-464459665"/>
    </vehicle>
    <vehicle id="139" type="passenger" depart="957.36">
        <route edges="-464459668#1 -464459668#0 -243542154#1 464461045 318747850#1 -243542154#2 464459668#0 464459668#1 464459668#2 -315658900#5 -315658900#4 -464459665 -315658896#4 464459667 315658900#3 315658900#4 315658900#5"/>
    </vehicle>
    <vehicle id="140" type="passenger" depart="964.25">
        <route edges="315658896#4 464459665 315658900#4 315658900#5 -464459668#2 -464459668#1 -464459668#0 -243542154#1 464461045 318747850#1 -243542154#2 464459668#0 464459668#1 464459668#2"/>
    </vehicle>