<?xml version="1.0" encoding="UTF-8"?>

<!-- generated on 2026-04-15 00:23:33.528477 by Eclipse SUMO randomTrips.py v1.26.0
<configuration>
    <net-file value="/Users/junlee/Desktop/2026-1/js/result/2026-04-15_00-06-49/sumo_nets/cw_8340/network.net.xml"/>
    <output-trip-file value="/Users/junlee/Desktop/2026-1/js/result/2026-04-15_00-06-49/sumo_nets/cw_8340/routes_seed42.trips.xml"/>
    <route-file value="/Users/junlee/Desktop/2026-1/js/result/2026-04-15_00-06-49/sumo_nets/cw_8340/routes_seed42.rou.xml"/>
    <vehicle-class value="passenger"/>
    <end value="1800.0"/>
    <period value="7.865448464886305"/>
</configuration>
-->

<!-- generated on 2026-04-15T00:23:33.511858+09:00 by Eclipse SUMO duarouter 1.26.0
<duarouterConfiguration xmlns:xsi="http://www.w3.org/2001/XMLSchema-instance" xsi:noNamespaceSchemaLocation="http://sumo.dlr.de/xsd/duarouterConfiguration.xsd">

    <input>
        <net-file value="/Users/junlee/Desktop/2026-1/js/result/2026-04-15_00-06-49/sumo_nets/cw_8340/network.net.xml"/>
        <route-files value="/Users/junlee/Desktop/2026-1/js/result/2026-04-15_00-06-49/sumo_nets/cw_8340/routes_seed42.trips.xml"/>
    </input>

    <output>
        <output-file value="/Users/junlee/Desktop/2026-1/js/result/2026-04-15_00-06-49/sumo_nets/cw_8340/routes_seed42.rou.xml"/>
        <alternatives-output value="NUL"/>
    </output>

    <time>
        <begin value="0.0"/>
        <end value="1800.0"/>
    </time>

    <report>
        <no-warnings value="true"/>
        <ignore-errors value="true"/>
        <no-step-log value="true"/>
    </report>

</duarouterConfiguration>
-->

<routes xmlns:xsi="http://www.w3.org/2001/XMLSchema-instance" xsi:noNamespaceSchemaLocation="http://sumo.dlr.de/xsd/routes_file.xsd">
    <vType id="passenger" vClass="passenger"/>
    <vehicle id="0" type="passenger" depart="0.00">
        <route edges="381452118#0 -381452126#1 -381452165#0 -218681380#1 -218681380#0 -520307305#4 -520307305#3 -520307305#2 -520307305#1 -520307305#0 244215552#0 -420317543#1 420317544#2 -420187959#2 -420187959#1 -1279010544#0"/>
    </vehicle>
    <vehicle id="1" type="passenger" depart="7.87">
        <route edges="-381452170#1 -381452170#0 117914345#0 -381452143#1 -381452151"/>
    </vehicle>
    <vehicle id="2" type="passenger" depart="15.73">
        <route edges="381452151 -381452143#0 -420187959#5 -420187959#4 -420187959#3 -420187959#2 -420187959#1 -1279010544#0 520307305#3 520307305#4 520307305#5 218681380#1 381452165#0 -381452126#0 381452118#5"/>
    </vehicle>
    <vehicle id="3" type="passenger" depart="23.60">
        <route edges="-420317540 -420187959#3 -420187959#2 -420187959#1 -1279010544#0"/>
    </vehicle>
    <vehicle id="4" type="passenger" depart="31.46">
        <route edges="-381452143#0 -420187959#5 -420187959#4 420317540 117914352#0"/>
    </vehicle>
    <vehicle id="5" type="passenger" depart="39.33">
        <route edges="-117914354 381452170#0 381452170#1 -381452103#0 -1279010544#0 520307305#3 520307305#4 381452118#0 -381452126#1"/>
    </vehicle>
    <vehicle id="6" type="passenger" depart="47.19">
        <route edges="381452118#1 381452123#0 -381452165#1 -381452165#0 218681380#2"/>
    </vehicle>
    <vehicle id="7" type="passenger" depart="55.06">
        <route edges="-381452143#1 -381452143#0 -420187959#5 -420187959#4 -420187959#3 -420187959#2 -420187959#1 -1279010544#0 -520307305#2 -520307305#1 -520307305#0 244215552#0 244215552#1"/>
    </vehicle>
    <vehicle id="8" type="passenger" depart="62.92">
        <route edges="381458592#2 -218681380#0 -520307305#4 -520307305#3 1279010544#0 420187959#1 420187959#2 420187959#3 420187959#4 420187959#5 381452143#0 381452143#1 -117914345#0"/>
    </vehicle>
    <vehicle id="9" type="passenger" depart="70.79">
        <route edges="381458592#2 218681380#1 218681380#2 -381452118#5 381452126#0"/>
    </vehicle>
    <vehicle id="10" type="passenger" depart="78.65">
        <route edges="-420187959#11 -420187959#10 -420187959#9 -420187959#8 -420187959#7 -420187959#6 -420187959#5 -420187959#4 -420187959#3 -420187959#2 -420187959#1 -1279010544#0 520307305#3 520307305#4 520307305#5 218681380#1 218681380#2 -381452118#5 -381452118#4"/>
    </vehicle>
    <vehicle id="11" type="passenger" depart="86.52">
        <route edges="520307305#0 520307305#1 520307305#2 1279010544#0 381452103#0 -381452170#1 -381452170#0 117914354 -420187959#3 -420187959#2"/>
    </vehicle>
    <vehicle id="12" type="passenger" depart="94.39">
        <route edges="420187959#2 420187959#3 -117914354 375125209"/>
    </vehicle>
    <vehicle id="13" type="passenger" depart="102.25">
        <route edges="381458592#2 218681380#1 381452165#0"/>
    </vehicle>
    <vehicle id="14" type="passenger" depart="110.12">
        <route edges="-420187959#5 -420187959#4 -420187959#3 -420187959#2 -420187959#1 -1279010544#0 520307305#3 520307305#4 520307305#5 218681380#1 218681380#2 218681380#3"/>
    </vehicle>
    <vehicle id="15" type="passenger" depart="117.98">
        <route edges="381452126#0 -381452165#0 -218681380#1"/>
    </vehicle>
    <vehicle id="16" type="passenger" depart="125.85">
        <route edges="-381452165#0 -218681380#1 -381458592#2 -381458592#1"/>
    </vehicle>
    <vehicle id="17" type="passenger" depart="133.71">
        <route edges="-375125209 117914354 -420187959#3 -420187959#2 -420187959#1 -1279010544#0 520307305#3 520307305#4 520307305#5 218681380#1 -381458600 -381458592#0"/>
    </vehicle>
    <vehicle id="18" type="passenger" depart="141.58">
        <route edges="-420187959#4 -117914354 117914345#0 -381452143#1 -381452143#0"/>
    </vehicle>
    <vehicle id="19" type="passenger" depart="149.44">
        <route edges="-381452170#0 117914354 420317540 117914352#0 117914352#1 420317544#1"/>
    </vehicle>
    <vehicle id="20" type="passenger" depart="157.31">
        <route edges="381452118#1 381452123#0 -381452165#1 -381452165#0 -218681380#1 -218681380#0 -520307305#4 381452098"/>
    </vehicle>
    <vehicle id="21" type="passenger" depart="165.17">
        <route edges="-381452118#5 381452126#0 381452126#1 -381452118#0 520307305#5 218681380#1 381452165#0"/>
    </vehicle>
    <vehicle id="22" type="passenger" depart="173.04">
        <route edges="520307305#4 381452118#0 381452118#1"/>
    </vehicle>
    <vehicle id="23" type="passenger" depart="180.91">
        <route edges="218681380#2 -381452118#5 -381452118#4 -381452118#3 -381452118#2 381452123#0"/>
    </vehicle>
    <vehicle id="24" type="passenger" depart="188.77">
        <route edges="-381452165#0 -218681380#1 -218681380#0 -520307305#4 -520307305#3 -520307305#2 -520307305#1 -520307305#0 244215552#0 -420317543#1 420317544#2 -420187959#2 -420187959#1 -1279010544#0"/>
    </vehicle>
    <vehicle id="25" type="passenger" depart="196.64">
        <route edges="-381458600 381458592#1 381458592#2 -218681380#0 -520307305#4 -520307305#3 -239357573#3 -239357573#2 -381458589#0"/>
    </vehicle>
    <vehicle id="26" type="passenger" depart="204.50">
        <route edges="-381452126#1 -381452165#0 -218681380#1 -218681380#0 -520307305#4 -520307305#3 -520307305#2 -520307305#1 -520307305#0 244215552#0 -420317543#1 -420317543#0 117914352#0 117914352#1 420317544#1"/>
    </vehicle>
    <vehicle id="27" type="passenger" depart="212.37">
        <route edges="381452118#2 381452118#3 381452118#4 381452118#5 -218681380#2 -218681380#1 -218681380#0 -520307305#4 -520307305#3 -520307305#2 -520307305#1 -520307305#0 244215552#0 -420317543#1 -420317543#0 -420317540"/>
    </vehicle>
    <vehicle id="28" type="passenger" depart="220.23">
        <route edges="420317540 420317543#0 420317544#2 -420187959#2 -420187959#1 -1279010544#0 -520307305#2 -520307305#1"/>
    </vehicle>
    <vehicle id="29" type="passenger" depart="228.10">
        <route edges="-381452170#0 117914354 -420187959#3 -420187959#2 -420187959#1 -1279010544#0 520307305#3 520307305#4 381452118#0 381452118#1 381452118#2 -381452165#2"/>
    </vehicle>
    <vehicle id="30" type="passenger" depart="235.96">
        <route edges="239357573#0 239357573#1 239357573#2 239357573#3 1279010544#0 381452103#0 -381452170#1"/>
    </vehicle>
    <vehicle id="31" type="passenger" depart="243.83">
        <route edges="239357573#2 239357573#3 1279010544#0 420187959#1 420187959#2 420187959#3 420187959#4 420187959#5 420187959#6 420187959#7 420187959#8"/>
    </vehicle>
    <vehicle id="32" type="passenger" depart="251.69">
        <route edges="-420187959#8 -420187959#7 -420187959#6 381452143#0 -381452151"/>
    </vehicle>
    <vehicle id="33" type="passenger" depart="259.56">
        <route edges="520307305#5 218681380#1 381452165#0 381452126#1 -381452118#0 -520307305#4 -520307305#3 -520307305#2 -520307305#1 -520307305#0 244215552#0 -420317543#1 -420317543#0 117914352#0 117914352#1"/>
    </vehicle>
    <vehicle id="34" type="passenger" depart="267.43">
        <route edges="-381452098 -520307305#3 1279010544#0 381452103#0 381452103#1"/>
    </vehicle>
    <vehicle id="35" type="passenger" depart="275.29">
        <route edges="381458592#0 381458600 -218681380#1 -218681380#0 -520307305#4 -520307305#3 -520307305#2 -520307305#1 -520307305#0 244215552#0 -420317543#1 -420317544#1 -420317544#0"/>
    </vehicle>
    <vehicle id="36" type="passenger" depart="283.16">
        <route edges="520307305#5 218681380#1 381452165#0 381452126#1 -381452118#0 -520307305#4 -520307305#3 1279010544#0"/>
    </vehicle>
    <vehicle id="37" type="passenger" depart="291.02">
        <route edges="520307305#2 1279010544#0 420187959#1 420187959#2 420187959#3"/>
    </vehicle>
    <vehicle id="38" type="passenger" depart="298.89">
        <route edges="-117914345#1 -117914345#0 117914354 420187959#4 420187959#5 381452143#0 381452143#1"/>
    </vehicle>
    <vehicle id="39" type="passenger" depart="306.75">
        <route edges="381452118#5 -218681380#2 381452165#0 381452126#1 -381452118#0 520307305#5 218681380#1"/>
    </vehicle>
    <vehicle id="40" type="passenger" depart="314.62">
        <route edges="-381452170#0 117914354 -420187959#3 -420187959#2 -420187959#1 -1279010544#0 520307305#3 520307305#4 381452118#0 381452118#1"/>
    </vehicle>
    <vehicle id="41" type="passenger" depart="322.48">
        <route edges="-381452098 -520307305#3 -520307305#2 -520307305#1 -520307305#0 244215552#0 -420317543#1 -420317544#1"/>
    </vehicle>
    <vehicle id="42" type="passenger" depart="330.35">
        <route edges="420187959#5 381452143#0 381452143#1 -117914345#0 117914354 -420187959#3 -420187959#2 -420187959#1 381452103#0 -381452170#1"/>
    </vehicle>
    <vehicle id="43" type="passenger" depart="338.21">
        <route edges="-520307305#4 -520307305#3 -520307305#2 -520307305#1 -520307305#0 244215552#0 -420317543#1 420317544#2 -420187959#2 -420187959#1 -1279010544#0 520307305#3 520307305#4 520307305#5 218681380#1 218681380#2 -381452118#5 -381452118#4 -381452123#1"/>
    </vehicle>
    <vehicle id="44" type="passenger" depart="346.08">
        <route edges="420317540 420317543#0 420317544#2 420187959#3 420187959#4"/>
    </vehicle>
    <vehicle id="45" type="passenger" depart="353.95">
        <route edges="-381458592#1 381458600 -218681380#1 -218681380#0 381452118#0 381452118#1"/>
    </vehicle>
    <vehicle id="46" type="passenger" depart="361.81">
        <route edges="37928420 520307305#0 520307305#1 520307305#2 520307305#3 520307305#4 520307305#5 218681380#1 218681380#2 -381452118#5 -381452118#4 -381452118#3"/>
    </vehicle>
    <vehicle id="47" type="passenger" depart="369.68">
        <route edges="381452165#2 -381452118#2 -381452118#1 -381452118#0 520307305#5 218681380#1"/>
    </vehicle>
    <vehicle id="48" type="passenger" depart="377.54">
        <route edges="381452170#1 -381452103#0 -1279010544#0 520307305#3 520307305#4 520307305#5 218681380#1 381452165#0 381452126#1 -381452118#0 -520307305#4 -520307305#3 1279010544#0"/>
    </vehicle>
    <vehicle id="49" type="passenger" depart="385.41">
        <route edges="-117914352#0 420317543#0 420317543#1"/>
    </vehicle>
    <vehicle id="50" type="passenger" depart="393.27">
        <route edges="420187959#6 420187959#7 420187959#8 420187959#9 420187959#10 420187959#11"/>
    </vehicle>
    <vehicle id="51" type="passenger" depart="401.14">
        <route edges="-381458592#2 -381458592#1 381458600 -218681380#1 -218681380#0 -520307305#4 -520307305#3 -239357573#3 -239357573#2 -239357573#1 -239357573#0"/>
    </vehicle>
    <vehicle id="52" type="passenger" depart="409.00">
        <route edges="420187959#5 381452143#0 381452143#1 -117914345#0 117914354 420317540 420317543#0 420317544#2"/>
    </vehicle>
    <vehicle id="53" type="passenger" depart="416.87">
        <route edges="-218681380#3 -218681380#2 -218681380#1 -218681380#0 -520307305#4 -520307305#3 1279010544#0 420187959#1 420187959#2 420187959#3 -117914354 381452170#0"/>
    </vehicle>
    <vehicle id="54" type="passenger" depart="424.73">
        <route edges="381452170#0 381452170#1 -381452103#0 -1279010544#0 520307305#3 520307305#4 520307305#5 218681380#1 381452165#0 381452126#1 -381452118#0"/>
    </vehicle>
    <vehicle id="55" type="passenger" depart="432.60">
        <route edges="-520307305#1 -520307305#0 244215552#0 -420317543#1 420317544#2 -420187959#2 -420187959#1 -1279010544#0 520307305#3 520307305#4 520307305#5 218681380#1 218681380#2 218681380#3"/>
    </vehicle>
    <vehicle id="56" type="passenger" depart="440.47">
        <route edges="-381452170#0 117914354 420187959#4 420187959#5"/>
    </vehicle>
    <vehicle id="57" type="passenger" depart="448.33">
        <route edges="-420317543#0 -420317540 -117914354 117914345#0 -381452143#1"/>
    </vehicle>
    <vehicle id="58" type="passenger" depart="456.20">
        <route edges="1279010544#0 420187959#1 420187959#2 420187959#3 -117914354 381452170#0 381452170#1 -381452103#0 -1279010544#0 520307305#3 520307305#4 520307305#5 218681380#1 381452165#0"/>
    </vehicle>
    <vehicle id="59" type="passenger" depart="464.06">
        <route edges="-381452126#0 381452118#5 -218681380#2 -218681380#1 -218681380#0 -520307305#4 -520307305#3 -520307305#2 -520307305#1 -520307305#0 244215552#0 -420317543#1 420317544#2 -420187959#2 -420187959#1"/>
    </vehicle>
    <vehicle id="60" type="passenger" depart="471.93">
        <route edges="520307305#5 218681380#1 381452165#0 381452165#1 -381452123#0 381452118#2"/>
    </vehicle>
    <vehicle id="61" type="passenger" depart="479.79">
        <route edges="-420317543#1 420317544#2 -420187959#2 -420187959#1 381452103#0 -381452170#1 -381452170#0 117914354"/>
    </vehicle>
    <vehicle id="62" type="passenger" depart="487.66">
        <route edges="-381452103#0 420187959#1 420187959#2 420187959#3 420187959#4 420187959#5 381452143#0 -381452151"/>
    </vehicle>
    <vehicle id="63" type="passenger" depart="495.52">
        <route edges="-420187959#11 -420187959#10 -420187959#9 -420187959#8 -420187959#7 -420187959#6 -420187959#5 -420187959#4 -420187959#3 -420187959#2 -420187959#1 -1279010544#0 -520307305#2 -520307305#1 -520307305#0 244215552#0"/>
    </vehicle>
    <vehicle id="64" type="passenger" depart="503.39">
        <route edges="-381452165#0 -218681380#1 -218681380#0 -520307305#4 -520307305#3 1279010544#0 420187959#1 420187959#2 420187959#3 420187959#4 420187959#5 381452143#0 -381452151"/>
    </vehicle>
    <vehicle id="65" type="passenger" depart="511.25">
        <route edges="-218681380#3 -218681380#2 -218681380#1 -218681380#0 381452118#0"/>
    </vehicle>
    <vehicle id="66" type="passenger" depart="519.12">
        <route edges="-381452165#0 -218681380#1 -218681380#0 -520307305#4 -520307305#3 1279010544#0 420187959#1 420187959#2 420187959#3 420187959#4 420187959#5 420187959#6 420187959#7 420187959#8 420187959#9"/>
    </vehicle>
    <vehicle id="67" type="passenger" depart="526.99">
        <route edges="420187959#3 -117914354 381452170#0 381452170#1 -381452103#0 -1279010544#0 -239357573#3 -239357573#2 -239357573#1"/>
    </vehicle>
    <vehicle id="68" type="passenger" depart="534.85">
        <route edges="-381452165#1 381452126#1 381452118#1 381452118#2 381452118#3 381452118#4"/>
    </vehicle>
    <vehicle id="69" type="passenger" depart="542.72">
        <route edges="-381452143#0 -420187959#5 -420187959#4 -420187959#3 -420187959#2 -420187959#1 -1279010544#0 520307305#3 520307305#4 520307305#5 218681380#1 381452165#0 381452165#1 -381452123#0 -381452118#1"/>
    </vehicle>
    <vehicle id="70" type="passenger" depart="550.58">
        <route edges="-520307305#1 -520307305#0 244215552#0 -420317543#1 420317544#2 -420187959#2 -420187959#1 -1279010544#0 -239357573#3 -239357573#2 -239357573#1 381458581#1"/>
    </vehicle>
    <vehicle id="71" type="passenger" depart="558.45">
        <route edges="381458592#2 218681380#1 381452165#0 -381452126#0"/>
    </vehicle>
    <vehicle id="72" type="passenger" depart="566.31">
        <route edges="-420317543#0 -420317540 -420187959#3 -420187959#2 -420187959#1 -1279010544#0 -520307305#2"/>
    </vehicle>
    <vehicle id="73" type="passenger" depart="574.18">
        <route edges="381452143#1 -117914345#0 381452170#0 381452170#1 -381452103#0 -1279010544#0 520307305#3 520307305#4 520307305#5 218681380#1 381452165#0 -381452126#0 381452118#5"/>
    </vehicle>
    <vehicle id="74" type="passenger" depart="582.04">
        <route edges="520307305#4 520307305#5 218681380#1 381452165#0 381452126#1 -381452118#0 -520307305#4 -520307305#3 1279010544#0 420187959#1 420187959#2 420187959#3 -117914354 381452170#0 381452170#1 -381452103#0"/>
    </vehicle>
    <vehicle id="75" type="passenger" depart="589.91">
        <route edges="-420187959#8 -420187959#7 -420187959#6 -420187959#5 -420187959#4 -420187959#3"/>
    </vehicle>
    <vehicle id="76" type="passenger" depart="597.77">
        <route edges="420187959#3 -117914354 381452170#0 381452170#1 -381452103#0 -1279010544#0 520307305#3 520307305#4 381452118#0 381452118#1 381452118#2 -381452165#2"/>
    </vehicle>
    <vehicle id="77" type="passenger" depart="605.64">
        <route edges="-381452123#1 -381452165#1 -381452165#0 -218681380#1 -218681380#0 -520307305#4 -520307305#3 -520307305#2 -520307305#1 -520307305#0"/>
    </vehicle>
    <vehicle id="78" type="passenger" depart="613.50">
        <route edges="-420317540 -420187959#3 -420187959#2 -420187959#1 -1279010544#0 520307305#3 520307305#4 520307305#5 218681380#1 -381458600 -381458592#0"/>
    </vehicle>
    <vehicle id="79" type="passenger" depart="621.37">
        <route edges="-381452165#2 -381452165#1 -381452165#0 -218681380#1 -218681380#0 -520307305#4 -520307305#3 -520307305#2 -520307305#1 -520307305#0 244215552#0 -420317543#1 -420317544#1 -420317544#0 -117914352#0 420317543#0"/>
    </vehicle>
    <vehicle id="80" type="passenger" depart="629.24">
        <route edges="-420317544#0 -117914352#0 420317543#0 420317544#2 420187959#3"/>
    </vehicle>
    <vehicle id="81" type="passenger" depart="637.10">
        <route edges="218681380#1 381452165#0 -381452126#0 381452118#5 -218681380#2"/>
    </vehicle>
    <vehicle id="82" type="passenger" depart="644.97">
        <route edges="520307305#5 218681380#1 381452165#0 381452126#1 -381452118#0 -520307305#4 -520307305#3 1279010544#0 420187959#1 420187959#2 420187959#3 420187959#4 420187959#5 420187959#6 420187959#7 420187959#8 420187959#9 420187959#10 420187959#11"/>
    </vehicle>
    <vehicle id="83" type="passenger" depart="652.83">
        <route edges="520307305#2 1279010544#0 420187959#1 420187959#2 420187959#3 420317540 420317543#0"/>
    </vehicle>
    <vehicle id="84" type="passenger" depart="660.70">
        <route edges="420187959#2 420187959#3 -117914354 381452170#0 381452170#1 -381452103#0 -1279010544#0 520307305#3 520307305#4 520307305#5 218681380#1 218681380#2 -381452118#5"/>
    </vehicle>
    <vehicle id="85" type="passenger" depart="668.56">
        <route edges="-520307305#2 -520307305#1 -520307305#0 244215552#0 -420317543#1 -420317543#0 -420317540 -117914354 117914345#0 -381452143#1"/>
    </vehicle>
    <vehicle id="86" type="passenger" depart="676.43">
        <route edges="-420187959#8 -420187959#7 -420187959#6 -420187959#5 -420187959#4 -420187959#3 -420187959#2 -420187959#1 -1279010544#0 -239357573#3 -239357573#2 -239357573#1 -239357573#0"/>
    </vehicle>
    <vehicle id="87" type="passenger" depart="684.29">
        <route edges="-420187959#5 -420187959#4 -420187959#3 -420187959#2 -420187959#1 -1279010544#0 520307305#3 520307305#4"/>
    </vehicle>
    <vehicle id="88" type="passenger" depart="692.16">
        <route edges="-381452170#0 117914354 -420187959#3 -420187959#2 -420187959#1 -1279010544#0 -239357573#3 -239357573#2 -239357573#1 381458581#1"/>
    </vehicle>
    <vehicle id="89" type="passenger" depart="700.02">
        <route edges="-420317544#1 -420317544#0"/>
    </vehicle>
    <vehicle id="90" type="passenger" depart="707.89">
        <route edges="520307305#0 520307305#1 520307305#2 520307305#3 520307305#4 520307305#5"/>
    </vehicle>
    <vehicle id="91" type="passenger" depart="715.76">
        <route edges="218681380#2 -381452118#5 381452126#0 -381452165#0 -218681380#1 -218681380#0 -520307305#4 -520307305#3 1279010544#0 420187959#1 420187959#2 420187959#3 420187959#4 420187959#5 381452143#0 381452143#1"/>
    </vehicle>
    <vehicle id="92" type="passenger" depart="723.62">
        <route edges="-381452118#3 -381452118#2 -381452118#1 -381452118#0 520307305#5 -381458592#2"/>
    </vehicle>
    <vehicle id="93" type="passenger" depart="731.49">
        <route edges="1279010544#0 420187959#1 420187959#2 420187959#3 -117914354 381452170#0 381452170#1 -381452103#0 -1279010544#0 520307305#3 520307305#4 520307305#5 218681380#1 381452165#0 381452165#1 381452165#2"/>
    </vehicle>
    <vehicle id="94" type="passenger" depart="739.35">
        <route edges="-218681380#2 -218681380#1 -218681380#0 -520307305#4 -520307305#3 -520307305#2 -520307305#1 -520307305#0 244215552#0"/>
    </vehicle>
    <vehicle id="95" type="passenger" depart="747.22">
        <route edges="-520307305#4 -520307305#3 1279010544#0 420187959#1 420187959#2"/>
    </vehicle>
    <vehicle id="96" type="passenger" depart="755.08">
        <route edges="244215552#0 -420317543#1 420317544#2 -420187959#2 -420187959#1 -1279010544#0 520307305#3 520307305#4 520307305#5 218681380#1 381452165#0 -381452126#0 381452118#5"/>
    </vehicle>
    <vehicle id="97" type="passenger" depart="762.95">
        <route edges="-381452165#0 -218681380#1 -218681380#0 -520307305#4 -520307305#3 1279010544#0 420187959#1 420187959#2 420187959#3 420187959#4 420187959#5 420187959#6 420187959#7 -381452108"/>
    </vehicle>
    <vehicle id="98" type="passenger" depart="770.81">
        <route edges="244215552#0 -420317543#1 420317544#2 -420187959#2 -420187959#1 381452103#0"/>
    </vehicle>
    <vehicle id="99" type="passenger" depart="778.68">
        <route edges="-420317540 -420187959#3 -420187959#2 -420187959#1 -1279010544#0 -520307305#2 -520307305#1 -520307305#0 244215552#0"/>
    </vehicle>
    <vehicle id="100" type="passenger" depart="786.54">
        <route edges="117914352#1 420317544#1 420317543#1"/>
    </vehicle>
    <vehicle id="101" type="passenger" depart="794.41">
        <route edges="-381452126#1 -381452165#0 -218681380#1 -218681380#0 -520307305#4 -520307305#3 1279010544#0 420187959#1 420187959#2 420187959#3 420187959#4 420187959#5 381452143#0"/>
    </vehicle>
    <vehicle id="102" type="passenger" depart="802.28">
        <route edges="-381452165#1 -381452165#0 -218681380#1 -218681380#0 -520307305#4 -520307305#3 -520307305#2 -520307305#1 -520307305#0 244215552#0 -420317543#1 -420317543#0 -420317540"/>
    </vehicle>
    <vehicle id="103" type="passenger" depart="810.14">
        <route edges="381452118#4 381452118#5 -218681380#2 -381458600"/>
    </vehicle>
    <vehicle id="104" type="passenger" depart="818.01">
        <route edges="-381458600 381458592#1 381458592#2 -218681380#0 -520307305#4 -520307305#3 -520307305#2 -520307305#1 -520307305#0 244215552#0 -420317543#1 -420317544#1 -420317544#0 381452167"/>
    </vehicle>
    <vehicle id="105" type="passenger" depart="825.87">
        <route edges="-218681380#3 -218681380#2 -218681380#1 -218681380#0 -520307305#4 -520307305#3 -520307305#2 -520307305#1"/>
    </vehicle>
    <vehicle id="106" type="passenger" depart="833.74">
        <route edges="520307305#5"/>
    </vehicle>
    <vehicle id="107" type="passenger" depart="841.60">
        <route edges="-381452170#0 117914354 420317540 420317543#0 420317543#1"/>
    </vehicle>
    <vehicle id="108" type="passenger" depart="849.47">
        <route edges="420187959#6"/>
    </vehicle>
    <vehicle id="109" type="passenger" depart="857.33">
        <route edges="-420187959#4 -420187959#3 -420187959#2 -420187959#1 -1279010544#0 520307305#3 520307305#4 520307305#5 218681380#1 218681380#2 -381452118#5 -381452118#4"/>
    </vehicle>
    <vehicle id="110" type="passenger" depart="865.20">
        <route edges="381452103#0 -381452170#1 -381452170#0 117914354 -420187959#3 -420187959#2 -420187959#1 -1279010544#0 520307305#3 520307305#4"/>
    </vehicle>
    <vehicle id="111" type="passenger" depart="873.06">
        <route edges="381452118#2 381452118#3 381452118#4 381452118#5 -218681380#2 -218681380#1 -218681380#0 -520307305#4 -520307305#3 1279010544#0 420187959#1 420187959#2 420187959#3 420187959#4 420187959#5 381452143#0 381452143#1 -117914345#0"/>
    </vehicle>
    <vehicle id="112" type="passenger" depart="880.93">
        <route edges="381458600 381452165#0 -381452126#0 381452118#5 -218681380#2 -381458600"/>
    </vehicle>
    <vehicle id="113" type="passenger" depart="888.80">
        <route edges="381452118#3 381452118#4 381452118#5 -218681380#2 -218681380#1 -218681380#0 -520307305#4 -520307305#3 -520307305#2 -520307305#1 -520307305#0 244215552#0 -420317543#1 -420317543#0 117914352#0 117914352#1 420317544#1"/>
    </vehicle>
    <vehicle id="114" type="passenger" depart="896.66">
        <route edges="-381452118#0 -520307305#4 -520307305#3 1279010544#0 420187959#1 420187959#2 420187959#3 420187959#4 420187959#5 420187959#6 420187959#7 -381452108"/>
    </vehicle>
    <vehicle id="115" type="passenger" depart="904.53">
        <route edges="-381452098 520307305#4 520307305#5 218681380#1 218681380#2 218681380#3"/>
    </vehicle>
    <vehicle id="116" type="passenger" depart="912.39">
        <route edges="-381452170#1 -381452170#0 375125209"/>
    </vehicle>
    <vehicle id="117" type="passenger" depart="920.26">
        <route edges="381452143#0 381452143#1 -117914345#0 381452170#0 381452170#1 -381452103#0 420187959#1 420187959#2 420187959#3 -117914354 117914345#0 -381452143#1 -381452143#0"/>
    </vehicle>
    <vehicle id="118" type="passenger" depart="928.12">
        <route edges="381452118#0 -381452126#1 -381452165#0 -218681380#1 -218681380#0 -520307305#4 -520307305#3 1279010544#0 381452103#0 -381452170#1"/>
    </vehicle>
    <vehicle id="119" type="passenger" depart="935.99">
        <route edges="-520307305#3 1279010544#0 420187959#1 420187959#2 420187959#3 420187959#4 420187959#5 420187959#6 420187959#7 420187959#8 420187959#9"/>
    </vehicle>
    <vehicle id="120" type="passenger" depart="943.85">
        <route edges="420187959#2 420187959#3 -117914354 381452170#0 381452170#1 -381452103#0 -1279010544#0 -520307305#2 -520307305#1 -520307305#0 -37928420"/>
    </vehicle>
    <vehicle id="121" type="passenger" depart="951.72">
        <route edges="-420317543#0 -420317540 -420187959#3 -420187959#2 -420187959#1 -1279010544#0 520307305#3 520307305#4 520307305#5 218681380#1 -381458600 -381458592#0"/>
    </vehicle>
    <vehicle id="122" type="passenger" depart="959.58">
        <route edges="-117914345#0 381452170#0 381452170#1"/>
    </vehicle>
    <vehicle id="123" type="passenger" depart="967.45">
        <route edges="381452118#0 -381452126#1 -381452165#0 -218681380#1 -218681380#0 -520307305#4 -520307305#3 1279010544#0 381452103#0 -381452170#1"/>
    </vehicle>
    <vehicle id="124" type="passenger" depart="975.32">
        <route edges="381452165#0 -381452126#0 381452118#5 218681380#3"/>
    </vehicle>
    <vehicle id="125" type="passenger" depart="983.18">
        <route edges="-420317543#0 -420317540 -420187959#3 -420317544#2 -420317544#1 -420317544#0 -117914352#0"/>
    </vehicle>
    <vehicle id="126" type="passenger" depart="991.05">
        <route edges="-381452118#2 -381452118#1 -381452118#0"/>
    </vehicle>
    <vehicle id="127" type="passenger" depart="998.91">
        <route edges="-381458592#2 -381458592#1 381458600 -218681380#1 -218681380#0 -520307305#4 -520307305#3 1279010544#0 420187959#1 420187959#2 420187959#3 420187959#4 420187959#5 420187959#6 420187959#7 420187959#8"/>
    </vehicle>
    <vehicle id="128" type="passenger" depart="1006.78">
        <route edges="381458592#0 381458600 -218681380#1 -218681380#0 -520307305#4 -520307305#3 1279010544#0 420187959#1 420187959#2 420187959#3"/>
    </vehicle>
    <vehicle id="129" type="passenger" depart="1014.64">
        <route edges="-381452165#2 -381452165#1 -381452165#0 -218681380#1 -218681380#0 -520307305#4 -520307305#3 1279010544#0 420187959#1 420187959#2 420187959#3 -117914354 381452170#0 381452170#1 -381452103#0"/>
    </vehicle>
    <vehicle id="130" type="passenger" depart="1022.51">
        <route edges="381452170#1 -381452103#0 420187959#1 420187959#2 420187959#3 420187959#4 420187959#5 420187959#6"/>
    </vehicle>
    <vehicle id="131" type="passenger" depart="1030.37">
        <route edges="-420187959#8 -420187959#7 -420187959#6 -420187959#5 -420187959#4 -420187959#3 -420187959#2 -420187959#1 381452103#0"/>
    </vehicle>
    <vehicle id="132" type="passenger" depart="1038.24">
        <route edges="-381452118#3 -381452118#2 -381452118#1 -381452118#0 -520307305#4 -520307305#3 1279010544#0 420187959#1 420187959#2 -420317544#2 420317543#1"/>
    </vehicle>
    <vehicle id="133" type="passenger" depart="1046.10">