<?xml version="1.0" encoding="UTF-8"?>

<!-- generated on 2026-04-17 02:51:01.194178 by Eclipse SUMO randomTrips.py v1.26.0
<configuration>
    <net-file value="/Users/junlee/Desktop/2026-1/js/result/tradeoff_pet_top12_seed12_60min_20260417_024953/sumo_nets/cw_8430/network.net.xml"/>
    <output-trip-file value="/Users/junlee/Desktop/2026-1/js/result/tradeoff_pet_top12_seed12_60min_20260417_024953/sumo_nets/cw_8430/routes_seed45.trips.xml"/>
    <route-file value="/Users/junlee/Desktop/2026-1/js/result/tradeoff_pet_top12_seed12_60min_20260417_024953/sumo_nets/cw_8430/routes_seed45.rou.xml"/>
    <vehicle-class value="passenger"/>
    <seed value="45"/>
    <period value="1.6313457769297386"/>
</configuration>
-->

<!-- generated on 2026-04-17T02:51:01.135655+09:00 by Eclipse SUMO duarouter 1.26.0
<duarouterConfiguration xmlns:xsi="http://www.w3.org/2001/XMLSchema-instance" xsi:noNamespaceSchemaLocation="http://sumo.dlr.de/xsd/duarouterConfiguration.xsd">

    <input>
        <net-file value="/Users/junlee/Desktop/2026-1/js/result/tradeoff_pet_top12_seed12_60min_20260417_024953/sumo_nets/cw_8430/network.net.xml"/>
        <route-files value="/Users/junlee/Desktop/2026-1/js/result/tradeoff_pet_top12_seed12_60min_20260417_024953/sumo_nets/cw_8430/routes_seed45.trips.xml"/>
    </input>

    <output>
        <output-file value="/Users/junlee/Desktop/2026-1/js/result/tradeoff_pet_top12_seed12_60min_20260417_024953/sumo_nets/cw_8430/routes_seed45.rou.xml"/>
        <alternatives-output value="NUL"/>
    </output>

    <time>
        <begin value="0.0"/>
        <end value="3600.0"/>
    </time>

    <report>
        <no-warnings value="true"/>
        <ignore-errors value="true"/>
        <no-step-log value="true"/>
    </report>

</duarouterConfiguration>
-->

<routes xmlns:xsi="http://www.w3.org/2001/XMLSchema-instance" xsi:noNamespaceSchemaLocation="http://sumo.dlr.de/xsd/routes_file.xsd">
    <vType id="passenger" vClass="passenger"/>
    <vehicle id="0" type="passenger" depart="0.00">
        <route edges="-381458600#0 381458592#4 381458592#5 218681380#1 218681380#2 218681380#3 218681380#4 218681380#5 218681380#7 -218960891#7 -218960891#6 -218960891#5 -218960891#4 -218960891#3 -218960891#2 -420103662#1 117770556#2"/>
    </vehicle>
    <vehicle id="1" type="passenger" depart="1.63">
        <route edges="-218960891#3 -381746311"/>
    </vehicle>
    <vehicle id="2" type="passenger" depart="3.26">
        <route edges="-218960891#1 381746451#0 117770556#1 420103662#1 218960891#2 218960891#3 218960891#4 218960891#5 218960891#6 913717725 -218681380#5 -218681380#4 -218681380#3 -218681380#2"/>
    </vehicle>
    <vehicle id="3" type="passenger" depart="4.89">
        <route edges="-381458603#0 -218681380#3 -381452118#7 -381452118#6 -381452118#5 -381452118#3 -381452118#1"/>
    </vehicle>
    <vehicle id="4" type="passenger" depart="6.53">
        <route edges="-381746303#1 -381746304#1 -381746304#0 920025287#4 519097168#2 519097168#4 218910324#0 218910324#1 218910324#2 218910324#3 -381458593 381458586 381458592#0"/>
    </vehicle>
    <vehicle id="5" type="passenger" depart="8.16">
        <route edges="-218681380#7 -218681380#5 -218681380#4 -218681380#3 -218681380#2 -218681380#1 -218681380#0 381452118#0"/>
    </vehicle>
    <vehicle id="6" type="passenger" depart="9.79">
        <route edges="-381452118#5 -381452165#2 -381452165#1 -381452165#0 218681380#2 218681380#3 381458603#0 381458603#1"/>
    </vehicle>
    <vehicle id="7" type="passenger" depart="11.42">
        <route edges="381458592#4 381458592#5 218681380#1 218681380#2 218681380#3 218681380#4 381458608#0 381458608#1 -381458583#1"/>
    </vehicle>
    <vehicle id="8" type="passenger" depart="13.05">
        <route edges="381746325#1 920025287#0 920025287#1 920025287#2 -381746313 519097168#4 -218681380#7 381458583#0 381458583#1"/>
    </vehicle>
    <vehicle id="9" type="passenger" depart="14.68">
        <route edges="-218960891#2 -420103662#1 117770556#2 381746311 218960891#3 218960891#4 218960891#5 218960891#6 218960891#7 -519097168#4 -519097168#2 -519097168#1 -519097166#0"/>
    </vehicle>
    <vehicle id="10" type="passenger" depart="16.31">
        <route edges="381458583#1 381458583#2 381458593 -218910324#3 -218910324#2 458731949 -519097166#0 519097167#0"/>
    </vehicle>
    <vehicle id="11" type="passenger" depart="17.94">
        <route edges="-381452165#0 -218681380#1 -381458592#5"/>
    </vehicle>
    <vehicle id="12" type="passenger" depart="19.58">
        <route edges="381458603#1 420187962#1 420187962#2 420187962#3 913718470"/>
    </vehicle>
    <vehicle id="13" type="passenger" depart="21.21">
        <route edges="-218960891#5 -218960891#4"/>
    </vehicle>
    <vehicle id="14" type="passenger" depart="22.84">
        <route edges="381458598 381458593 -218910324#3 -218910324#2 -218910324#1 913718470 -519097168#2 -920025287#4 381746304#0 -381746303#1 -381746303#0"/>
    </vehicle>
    <vehicle id="15" type="passenger" depart="24.47">
        <route edges="-420187963 -381458586 381458593 -218910324#3 -218910324#2 -218910324#1 -218910324#0 -218960891#7 -218960891#6 -218960891#5 -218960891#4 -218960891#3 -218960891#2 -218960891#1 381746451#0 117770556#1 420103662#1"/>
    </vehicle>
    <vehicle id="16" type="passenger" depart="26.10">
        <route edges="381458593 -218910324#3 -218910324#2 -218910324#1 -218910324#0 -218681380#7 -218681380#5 -218681380#4 -218681380#3 -218681380#2 381452165#0 381452165#1 381452123#1"/>
    </vehicle>
    <vehicle id="17" type="passenger" depart="27.73">
        <route edges="420187962#0 420187962#1 420187962#2 381458583#1 381458583#2 381458583#5"/>
    </vehicle>
    <vehicle id="18" type="passenger" depart="29.36">
        <route edges="381746303#1 -381746304#0 920025287#4 519097168#2 519097168#4 -218960891#7 -218960891#6 -218960891#5 -218960891#4 -218960891#3 -381452185#2 -381452185#1 -381452183#0 381452118#5 381452118#6"/>
    </vehicle>
    <vehicle id="19" type="passenger" depart="31.00">
        <route edges="519097167#0 519097167#1 -218910324#2 458731949"/>
    </vehicle>
    <vehicle id="20" type="passenger" depart="32.63">
        <route edges="-381746451#1 -381746451#0 218960891#1 218960891#2 218960891#3 218960891#4 218960891#5 218960891#6 913717725 -218681380#5 -218681380#4 -218681380#3 -218681380#2 -218681380#1 -218681380#0 381452118#0 381452118#1"/>
    </vehicle>
    <vehicle id="21" type="passenger" depart="34.26">
        <route edges="-218681380#3 -381452118#7 -381452118#6 -381452118#5 381452183#0 381452185#1 381452185#2 -381746311 117770556#3 117770556#4"/>
    </vehicle>
    <vehicle id="22" type="passenger" depart="35.89">
        <route edges="381452118#6 381452118#7 218681380#3 381458603#0 381458603#1 420187962#1 -381458608#0"/>
    </vehicle>
    <vehicle id="23" type="passenger" depart="37.52">
        <route edges="-519097167#1 -519097167#0 519097166#0 519097168#1 519097168#2 519097168#4 -218960891#7 -218960891#6 -218960891#5 -218960891#4 -218960891#3 -218960891#2 -420103662#1 117770556#2 381746311"/>
    </vehicle>
    <vehicle id="24" type="passenger" depart="39.15">
        <route edges="-381452118#6 -381452118#5 381452183#0 381452185#1 381452185#2 218960891#3 218960891#4 218960891#5 218960891#6 381746315 -920025287#1 -920025287#0"/>
    </vehicle>
    <vehicle id="25" type="passenger" depart="40.78">
        <route edges="-218960891#4 -218960891#3 -381452185#2 -381452100#0 218681380#5 381458583#0 -420187962#2"/>
    </vehicle>
    <vehicle id="26" type="passenger" depart="42.41">
        <route edges="420187962#2 -381458583#0 -218681380#5 381452100#0"/>
    </vehicle>
    <vehicle id="27" type="passenger" depart="44.05">
        <route edges="-218681380#5 381452100#0 381452185#2 -381746311 117770556#3 381746325#1"/>
    </vehicle>
    <vehicle id="28" type="passenger" depart="45.68">
        <route edges="381452165#0 -381452126#0 381452118#7 218681380#3 218681380#4"/>
    </vehicle>
    <vehicle id="29" type="passenger" depart="47.31">
        <route edges="-381458603#1 -381458603#0 218681380#4 218681380#5 218681380#7 218910324#0 218910324#1 218910324#2 -519097167#1 -381741927"/>
    </vehicle>
    <vehicle id="30" type="passenger" depart="48.94">
        <route edges="-381452165#2 -381452165#1 -381452165#0 -218681380#1 -218681380#0 381452118#0"/>
    </vehicle>
    <vehicle id="31" type="passenger" depart="50.57">
        <route edges="-218910324#2 458731949 519097168#1 519097168#2"/>
    </vehicle>
    <vehicle id="32" type="passenger" depart="52.20">
        <route edges="-218960891#7 913717725 -218681380#5 -218681380#4 -218681380#3 -218681380#2 -218681380#1 -218681380#0 381452118#0"/>
    </vehicle>
    <vehicle id="33" type="passenger" depart="53.83">
        <route edges="218960891#5 218960891#6 913717725 218681380#7 -218960891#7 -218960891#6 -218960891#5 -218960891#4 -218960891#3 -218960891#2 -420103662#1 -420103662#0"/>
    </vehicle>
    <vehicle id="34" type="passenger" depart="55.47">
        <route edges="-381458600#1 -420314177 -381458603#0 218681380#4 218681380#5 218681380#7 -519097168#4"/>
    </vehicle>
    <vehicle id="35" type="passenger" depart="57.10">
        <route edges="-381746308 -218960891#5 375125202 920025286"/>
    </vehicle>
    <vehicle id="36" type="passenger" depart="58.73">
        <route edges="381452126#0 -381452165#0 218681380#2 218681380#3"/>
    </vehicle>
    <vehicle id="37" type="passenger" depart="60.36">
        <route edges="381452165#1 381452165#2 381452183#0 381452185#1 381452185#2 -381746311 117770556#3"/>
    </vehicle>
    <vehicle id="38" type="passenger" depart="61.99">
        <route edges="-381452118#7 -381452118#6 -381452118#5 381452183#0 381452185#1 381452185#2 218960891#3 218960891#4 218960891#5 218960891#6 913717725 -218681380#5 -218681380#4"/>
    </vehicle>
    <vehicle id="39" type="passenger" depart="63.62">
        <route edges="920025286 -381746325#0 218960891#4 218960891#5 218960891#6 218960891#7 -519097168#4 381746313"/>
    </vehicle>
    <vehicle id="40" type="passenger" depart="65.25">
        <route edges="-218960891#5 -218960891#4 -218960891#3 -381452185#2 -381452185#1 -381452183#0 381452118#5 381452118#6 381452118#7 218681380#3 218681380#4 381452100#0"/>
    </vehicle>
    <vehicle id="41" type="passenger" depart="66.89">
        <route edges="381458608#1 -381458583#1 420187962#3"/>
    </vehicle>
    <vehicle id="42" type="passenger" depart="68.52">
        <route edges="-218910324#5 -218910324#4 -218910324#3 -218910324#2 -218910324#1 -218910324#0 -218681380#7 -218681380#5 -218681380#4 -218681380#3 -381452118#7 -381452118#6 -381452118#5"/>
    </vehicle>
    <vehicle id="43" type="passenger" depart="70.15">
        <route edges="-420314177 -381458603#0 218681380#4 381452100#0 381452185#2 218960891#3 218960891#4 218960891#5 218960891#6 218960891#7"/>
    </vehicle>
    <vehicle id="44" type="passenger" depart="71.78">
        <route edges="-218960891#3 -381452185#2 -381452185#1 381452183#1"/>
    </vehicle>
    <vehicle id="45" type="passenger" depart="73.41">
        <route edges="381458598 -381458583#2 -381458583#1 -381458583#0 -218681380#5 -218681380#4 -218681380#3 -218681380#2 -218681380#1 -218681380#0 -520307305#0"/>
    </vehicle>
    <vehicle id="46" type="passenger" depart="75.04">
        <route edges="381746325#1 920025287#0 920025287#1 920025287#2 -381746313 519097168#4 218910324#0 -420187962#3"/>
    </vehicle>
    <vehicle id="47" type="passenger" depart="76.67">
        <route edges="381746313 920025287#3 920025287#4 519097168#2 519097168#4 218910324#0 -420187962#3 -420187962#2"/>
    </vehicle>
    <vehicle id="48" type="passenger" depart="78.30">
        <route edges="-519097166#0 519097167#0 519097167#1 -218910324#2 -218910324#1 -420187962#3 -420187962#2 -420187962#1"/>
    </vehicle>
    <vehicle id="49" type="passenger" depart="79.94">
        <route edges="381458586 381458592#0 420187962#0 420187962#1"/>
    </vehicle>
    <vehicle id="50" type="passenger" depart="81.57">
        <route edges="-218960891#1 381746451#0 117770556#1 420103662#1 218960891#2 218960891#3 218960891#4 218960891#5"/>
    </vehicle>
    <vehicle id="51" type="passenger" depart="83.20">
        <route edges="381746315 920025287#2 -381746313 519097168#4 -218681380#7 -218681380#5 -218681380#4 -218681380#3 -381452118#7 -381452118#6 -381452118#5 381452183#0"/>
    </vehicle>
    <vehicle id="52" type="passenger" depart="84.83">
        <route edges="-381458587 381458592#2 381458600#0 381458600#1 218681380#2 218681380#3 218681380#4 218681380#5 218681380#7 -218960891#7 -218960891#6 -218960891#5 -218960891#4 -218960891#3 -218960891#2 -420103662#1"/>
    </vehicle>
    <vehicle id="53" type="passenger" depart="86.46">
        <route edges="420187962#3 218910324#1 218910324#2 218910324#3 -381458593 -381458583#2"/>
    </vehicle>
    <vehicle id="54" type="passenger" depart="88.09">
        <route edges="913717725 -218681380#5 -218681380#4 -218681380#3 -218681380#2 -381458600#1 -420314177"/>
    </vehicle>
    <vehicle id="55" type="passenger" depart="89.72">
        <route edges="218681380#7 -218960891#7 913717725 -218681380#5 381452100#0 381452185#2"/>
    </vehicle>
    <vehicle id="56" type="passenger" depart="91.36">
        <route edges="381452185#1 381452185#2 218960891#3 218960891#4 218960891#5"/>
    </vehicle>
    <vehicle id="57" type="passenger" depart="92.99">
        <route edges="420187962#0 -381458603#1 -381458603#0 -218681380#3 -218681380#2 381452165#0 381452165#1 381452165#2 381452118#5"/>
    </vehicle>
    <vehicle id="58" type="passenger" depart="94.62">
        <route edges="519097167#1 -218910324#2 -218910324#1 -218910324#0 -218681380#7 -218681380#5 -218681380#4 -218681380#3 -218681380#2 381452165#0 -381452126#0 381452118#7"/>
    </vehicle>
    <vehicle id="59" type="passenger" depart="96.25">
        <route edges="218960891#7 218910324#0 -420187962#3 381458583#1 381458583#2 381458593 -218910324#3"/>
    </vehicle>
    <vehicle id="60" type="passenger" depart="97.88">
        <route edges="519097166#0 519097168#1 519097168#2 519097168#4 -218681380#7 -218681380#5 -218681380#4 -218681380#3 -218681380#2 -381458600#1 -381458600#0 -381458590"/>
    </vehicle>
    <vehicle id="61" type="passenger" depart="99.51">
        <route edges="-381458583#5 381458593 -218910324#3 -218910324#2"/>
    </vehicle>
    <vehicle id="62" type="passenger" depart="101.14">
        <route edges="381452118#5 381452118#6 381452118#7 218681380#3 381458603#0 381458603#1 -420187962#0"/>
    </vehicle>
    <vehicle id="63" type="passenger" depart="102.77">
        <route edges="381452126#1 -381452118#0 520307305#1 218681380#1 218681380#2 218681380#3 218681380#4 218681380#5 218681380#7 -519097168#4 -519097168#2 -920025287#4 381746304#0 381746304#1 381746303#1"/>
    </vehicle>
    <vehicle id="64" type="passenger" depart="104.41">
        <route edges="520307305#0 520307305#1 218681380#1 218681380#2 218681380#3 218681380#4 381458608#0 381458608#1"/>
    </vehicle>
    <vehicle id="65" type="passenger" depart="106.04">
        <route edges="381746315 920025287#2 -381746313 519097168#4 218910324#0 -420187962#3 -420187962#2"/>
    </vehicle>
    <vehicle id="66" type="passenger" depart="107.67">
        <route edges="-218910324#2 -218910324#1 -218910324#0 -218681380#7 -218681380#5 -218681380#4 -218681380#3 -218681380#2 -381458600#1 -381458600#0 381458592#4 381458592#5"/>
    </vehicle>
    <vehicle id="67" type="passenger" depart="109.30">
        <route edges="920025287#4 519097168#2 381746313 -920025287#2 -920025287#1"/>
    </vehicle>
    <vehicle id="68" type="passenger" depart="110.93">
        <route edges="458731949 519097168#1 519097168#2 519097168#4 218910324#0 218910324#1 218910324#2 218910324#3 218910324#4 218910324#5"/>
    </vehicle>
    <vehicle id="69" type="passenger" depart="112.56">
        <route edges="-420187963 -381458586 381458593 -218910324#3 -218910324#2 -218910324#1 -218910324#0 -218960891#7 -218960891#6 381746308"/>
    </vehicle>
    <vehicle id="70" type="passenger" depart="114.19">
        <route edges="-218910324#4 -218910324#3 -218910324#2 -218910324#1 -218910324#0 -218960891#7 -218960891#6 -218960891#5 -218960891#4 -218960891#3 -218960891#2 -420103662#1 -420103662#0"/>
    </vehicle>
    <vehicle id="71" type="passenger" depart="115.83">
        <route edges="381458583#0 420187962#3 -218910324#0 -218960891#7 -218960891#6 -218960891#5 -218960891#4 -218960891#3"/>
    </vehicle>
    <vehicle id="72" type="passenger" depart="117.46">
        <route edges="218960891#1 218960891#2 218960891#3 218960891#4 218960891#5 218960891#6 218960891#7 218910324#0 -420187962#3"/>
    </vehicle>
    <vehicle id="73" type="passenger" depart="119.09">
        <route edges="-381458583#2 -381458583#1 -381458583#0 218681380#7 -519097168#4 -519097168#2 -519097168#1 -458731949"/>
    </vehicle>
    <vehicle id="74" type="passenger" depart="120.72">
        <route edges="381458592#5 218681380#1 381452165#0 381452126#1"/>
    </vehicle>
    <vehicle id="75" type="passenger" depart="122.35">
        <route edges="375125202 920025287#0 920025287#1 920025287#2 -381746313 519097168#4 -218681380#7 -218681380#5 -218681380#4 -218681380#3 -218681380#2 -218681380#1 -381458592#5 -381458592#4 381458600#0"/>
    </vehicle>
    <vehicle id="76" type="passenger" depart="123.98">
        <route edges="-519097167#0 519097166#0 519097168#1 519097168#2 519097168#4 -218681380#7 -218681380#5 381452100#0 381452185#2 218960891#3"/>
    </vehicle>
    <vehicle id="77" type="passenger" depart="125.61">
        <route edges="-218960891#6 -218960891#5 -218960891#4 -218960891#3 -381452185#2 -381452185#1 -381452183#0 -381452165#2 381452123#1"/>
    </vehicle>
    <vehicle id="78" type="passenger" depart="127.24">
        <route edges="381452165#2 381452118#5 381452118#6 381452118#7 -218681380#2 -218681380#1 -218681380#0 381452118#0 381452118#1"/>
    </vehicle>
    <vehicle id="79" type="passenger" depart="128.88">
        <route edges="381741964 519097166#0 519097168#1 519097168#2 519097168#4 -218960891#7 381746315 920025287#2"/>
    </vehicle>
    <vehicle id="80" type="passenger" depart="130.51">
        <route edges="381458592#0 420187962#0 420187962#1 420187962#2 420187962#3 -218910324#0 -218960891#7 -218960891#6 -218960891#5 375125202 920025287#0"/>
    </vehicle>
    <vehicle id="81" type="passenger" depart="132.14">
        <route edges="381452165#0 -381452126#0 381452118#7 -218681380#2 -381458600#1"/>
    </vehicle>
    <vehicle id="82" type="passenger" depart="133.77">
        <route edges="420103662#1 218960891#2 -381452185#2 -381452185#1 -381452183#0 -381452165#2 -381452165#1 381452126#1"/>
    </vehicle>
    <vehicle id="83" type="passenger" depart="135.40">
        <route edges="381452118#6 381452126#0 381452165#1 -381452123#0"/>
    </vehicle>
    <vehicle id="84" type="passenger" depart="137.03">
        <route edges="218960891#3 218960891#4 218960891#5 218960891#6 913717725 218681380#7 -218960891#7 -218960891#6 -218960891#5 -218960891#4 -218960891#3 -381746311"/>
    </vehicle>
    <vehicle id="85" type="passenger" depart="138.66">
        <route edges="218960891#5 218960891#6 218960891#7 -519097168#4 -519097168#2 -519097168#1 -519097166#0 519097167#0"/>
    </vehicle>
    <vehicle id="86" type="passenger" depart="140.30">
        <route edges="-420187962#3 -381458583#0 -218681380#5 -218681380#4 -218681380#3"/>
    </vehicle>
    <vehicle id="87" type="passenger" depart="141.93">
        <route edges="-381452118#0 520307305#1 218681380#1 218681380#2 218681380#3 218681380#4 218681380#5 218681380#7 218910324#0"/>
    </vehicle>
    <vehicle id="88" type="passenger" depart="143.56">
        <route edges="381746325#0 117770556#4 920025287#0 920025287#1 920025287#2 920025287#3 920025287#4 -519097168#1 -519097166#0 519097167#0 519097167#1 -218910324#2"/>
    </vehicle>
    <vehicle id="89" type="passenger" depart="145.19">
        <route edges="-519097167#1 -519097167#0 519097166#0 519097168#1 519097168#2 519097168#4 -218960891#7 -218960891#6 -218960891#5 -218960891#4 -218960891#3 -381746311"/>
    </vehicle>
    <vehicle id="90" type="passenger" depart="146.82">
        <route edges="-920025287#0 920025286 -381746325#0 218960891#4 218960891#5 218960891#6 913717725 -218681380#5 -218681380#4 -218681380#3 -218681380#2 -218681380#1 -218681380#0 381452118#0 381452118#1"/>
    </vehicle>
    <vehicle id="91" type="passenger" depart="148.45">
        <route edges="218681380#3 381458603#0 420314177 -381458600#0"/>
    </vehicle>
    <vehicle id="92" type="passenger" depart="150.08">
        <route edges="420187962#0 420187962#1 420187962#2 420187962#3 913718470 -519097168#2 -519097168#1 -519097168#0 381741961"/>
    </vehicle>
    <vehicle id="93" type="passenger" depart="151.72">
        <route edges="420317539 381452123#0 381452165#2 -381452118#3"/>
    </vehicle>
    <vehicle id="94" type="passenger" depart="153.35">
        <route edges="218910324#2 -519097167#1 -519097167#0 519097166#0 519097168#1 519097168#2 519097168#4 -218681380#7 -218681380#5 -218681380#4 -218681380#3 -218681380#2 -381458600#1 -381458600#0 -381458592#2 -381458592#1"/>
    </vehicle>
    <vehicle id="95" type="passenger" depart="154.98">
        <route edges="-218960891#6 -218960891#5 375125202 920025287#0 920025287#1 920025287#2 920025287#3 920025287#4 -519097168#1 -519097166#0 519097167#0 519097167#1"/>
    </vehicle>
    <vehicle id="96" type="passenger" depart="156.61">
        <route edges="381452165#0 -381452126#0 381452118#7 218681380#3 218681380#4 218681380#5 218681380#7 -218960891#7 381746315 -920025287#1 -920025287#0"/>
    </vehicle>
    <vehicle id="97" type="passenger" depart="158.24">
        <route edges="381458603#0 381458603#1 420187962#1 420187962#2 420187962#3 -218910324#0 -218960891#7 381746315"/>
    </vehicle>
    <vehicle id="98" type="passenger" depart="159.87">
        <route edges="117770556#0 -381746451#0 218960891#1 218960891#2 -381452185#2 -381452100#0"/>
    </vehicle>
    <vehicle id="99" type="passenger" depart="161.50">
        <route edges="458731949 519097168#1 519097168#2 519097168#4 -218681380#7 -218681380#5 -218681380#4 -218681380#3 -218681380#2 381452165#0 381452126#1 -381452118#0 520307305#1 218681380#1"/>
    </vehicle>
    <vehicle id="100" type="passenger" depart="163.13">
        <route edges="-519097168#0 381741961 519097166#0 519097168#1 519097168#2 519097168#4 -218960891#7 -218960891#6 -218960891#5 -218960891#4 -218960891#3 -381452185#2 -381452185#1"/>
    </vehicle>
    <vehicle id="101" type="passenger" depart="164.77">
        <route edges="218681380#7 -218960891#7 -218960891#6 -218960891#5 -218960891#4 -218960891#3 -218960891#2 -218960891#1 381746451#0 381746451#1"/>
    </vehicle>
    <vehicle id="102" type="passenger" depart="166.40">
        <route edges="519097168#2 519097168#4 -218681380#7 -218681380#5 -218681380#4 -218681380#3 -381452118#7"/>
    </vehicle>
    <vehicle id="103" type="passenger" depart="168.03">
        <route edges="-381452118#0 520307305#1 218681380#1 218681380#2 218681380#3 218681380#4 218681380#5 218681380#7 -519097168#4 381746313 920025287#3"/>
    </vehicle>
    <vehicle id="104" type="passenger" depart="169.66">
        <route edges="218910324#0 913718470 519097168#4 -218681380#7 -218681380#5 -218681380#4 -218681380#3 -218681380#2 -218681380#1 -218681380#0 381452118#0 381452118#1 381452118#3"/>
    </vehicle>
    <vehicle id="105" type="passenger" depart="171.29">
        <route edges="381458583#0 420187962#3 218910324#1 218910324#2 -519097167#1 -519097167#0"/>
    </vehicle>
    <vehicle id="106" type="passenger" depart="172.92">
        <route edges="-458731949 -218910324#1 -218910324#0 -218960891#7 -218960891#6 -218960891#5 -218960891#4 -218960891#3 -218960891#2 -218960891#1 381746451#0 381746451#1"/>
    </vehicle>
    <vehicle id="107" type="passenger" depart="174.55">
        <route edges="381452118#6 381452118#7 218681380#3 218681380#4 218681380#5 218681380#7 -218960891#7 913717725 -218681380#5 -218681380#4"/>
    </vehicle>
    <vehicle id="108" type="passenger" depart="176.19">
        <route edges="-218910324#0 -218960891#7 -218960891#6 -218960891#5 -218960891#4 -218960891#3 -218960891#2 -420103662#1 117770556#2 381746311"/>
    </vehicle>
    <vehicle id="109" type="passenger" depart="177.82">
        <route edges="375125202 920025287#0 920025287#1 920025287#2 -381746313 519097168#4 218910324#0 218910324#1 218910324#2 218910324#3 -381458593 381458586 381458592#0"/>
    </vehicle>
    <vehicle id="110" type="passenger" depart="179.45">
        <route edges="218681380#2 218681380#3 218681380#4 381452100#0 381452185#2"/>
    </vehicle>
    <vehicle id="111" type="passenger" depart="181.08">
        <route edges="-381746451#0 218960891#1 -420103662#1"/>
    </vehicle>
    <vehicle id="112" type="passenger" depart="182.71">
        <route edges="-381746325#0 218960891#4 218960891#5 218960891#6 218960891#7 218910324#0 -420187962#3 -420187962#2 -381458608#0"/>
    </vehicle>
    <vehicle id="113" type="passenger" depart="184.34">
        <route edges="520307305#1 218681380#1 218681380#2 218681380#3 218681380#4 218681380#5 218681380#7 -218960891#7 -218960891#6 -218960891#5 -218960891#4 -218960891#3 -218960891#2 -218960891#1 381746451#0 117770556#1 420103662#1"/>
    </vehicle>
    <vehicle id="114" type="passenger" depart="185.97">
        <route edges="519097168#1 519097168#2 519097168#4 218910324#0 913718470 -519097168#2 -519097168#1 -519097168#0 381741961"/>
    </vehicle>
    <vehicle id="115" type="passenger" depart="187.60">
        <route edges="381452123#0 -381452165#1 -381452165#0 218681380#2 218681380#3 218681380#4 218681380#5 218681380#7 218910324#0 913718470"/>
    </vehicle>
    <vehicle id="116" type="passenger" depart="189.24">
        <route edges="381458598 381458593 -218910324#3 -218910324#2 -218910324#1 -218910324#0 -218960891#7 -218960891#6 -218960891#5 375125202"/>
    </vehicle>
    <vehicle id="117" type="passenger" depart="190.87">
        <route edges="-381746313 519097168#4 -218681380#7 -218681380#5 -218681380#4 -218681380#3 -218681380#2 -218681380#1 -218681380#0 381452118#0"/>
    </vehicle>
    <vehicle id="118" type="passenger" depart="192.50">
        <route edges="-519097168#1 -458731949 -218910324#1 -218910324#0 -218681380#7 -218681380#5 -218681380#4 -218681380#3 -381452118#7 -381452118#6 -381452123#1 -381452165#1"/>
    </vehicle>
    <vehicle id="119" type="passenger" depart="194.13">
        <route edges="-381452126#0 381452118#7 218681380#3 218681380#4 218681380#5 218681380#7 -218960891#7"/>
    </vehicle>
    <vehicle id="120" type="passenger" depart="195.76">
        <route edges="381452185#1 381452185#2 218960891#3 218960891#4 218960891#5 218960891#6 218960891#7 218910324#0 -420187962#3 -420187962#2 -420187962#1"/>
    </vehicle>
    <vehicle id="121" type="passenger" depart="197.39">
        <route edges="920025287#2 920025287#3 920025287#4 -519097168#1 -519097168#0 381741961 519097166#0"/>
    </vehicle>
    <vehicle id="122" type="passenger" depart="199.02">
        <route edges="-381458603#0 218681380#4 218681380#5 218681380#7 -218960891#7"/>
    </vehicle>
    <vehicle id="123" type="passenger" depart="200.66">
        <route edges="381746313 920025287#3 920025287#4 519097168#2 519097168#4 -218960891#7 381746315"/>
    </vehicle>
    <vehicle id="124" type="passenger" depart="202.29">
        <route edges="-420187962#1 -420187962#0 381458592#1 381458592#2 381458592#4"/>
    </vehicle>
    <vehicle id="125" type="passenger" depart="203.92">
        <route edges="519097168#4 -218681380#7 -218681380#5 -218681380#4 -218681380#3 -218681380#2 -218681380#1 -218681380#0 -520307305#0"/>
    </vehicle>
    <vehicle id="126" type="passenger" depart="205.55">
        <route edges="-920025287#1 -920025287#0 920025286 -381746325#0 -218960891#3 -381452185#2 381452100#1"/>
    </vehicle>
    <vehicle id="127" type="passenger" depart="207.18">
        <route edges="381746325#0 117770556#4 920025287#0 920025287#1 920025287#2 -381746313 519097168#4 -218681380#7 -218681380#5 -218681380#4 -218681380#3 -381452118#7 -381452118#6 -381452118#5 381452183#0 381452185#1"/>
    </vehicle>
    <vehicle id="128" type="passenger" depart="208.81">
        <route edges="920025287#2 -381746313 519097168#4 -218681380#7 -218681380#5 -218681380#4 -218681380#3 -381452118#7"/>
    </vehicle>
    <vehicle id="129" type="passenger" depart="210.44">
        <route edges="-218960891#5 -218960891#4 -218960891#3 -381452185#2 -381452185#1 -381452183#0 -381452118#3 -381452118#1"/>
    </vehicle>
    <vehicle id="130" type="passenger" depart="212.07">
        <route edges="519097168#4 -218681380#7 381458583#0 381458583#1 -381458608#1"/>
    </vehicle>
    <vehicle id="131" type="passenger" depart="213.71">
        <route edges="-218960891#1 381746451#0 117770556#1 420103662#1 218960891#2 -381452185#2 -381452185#1 -381452183#0 381452118#5 -381452123#1"/>
    </vehicle>
    <vehicle id="132" type="passenger" depart="215.34">
        <route edges="-218681380#4 -218681380#3 -218681380#2 381452165#0 -381452126#0 381452118#7 218681380#3 218681380#4 218681380#5 218681380#7"/>
    </vehicle>
    <vehicle id="133" type="passenger" depart="216.97">
        <route edges="381452123#0 -381452165#1 -381452165#0 218681380#2 218681380#3 218681380#4 381458608#0 -420187962#1 -381458603#1"/>
    </vehicle>
    <vehicle id="134" type="passenger" depart="218.60">
        <route edges="-218681380#3 -218681380#2 381452165#0 -381452126#0 381452118#7 218681380#3 218681380#4 218681380#5 381458583#0 420187962#3 -218910324#0"/>
    </vehicle>
    <vehicle id="135" type="passenger" depart="220.23">
        <route edges="381452185#2 218960891#3 218960891#4 218960891#5 218960891#6 913717725 -218681380#5 -218681380#4 -218681380#3 -218681380#2 -218681380#1 -218681380#0"/>
    </vehicle>
    <vehicle id="136" type="passenger" depart="221.86">