<?xml version="1.0" encoding="UTF-8"?>

<!-- generated on 2026-04-17 02:50:58.421034 by Eclipse SUMO randomTrips.py v1.26.0
<configuration>
    <net-file value="/Users/junlee/Desktop/2026-1/js/result/tradeoff_pet_top12_seed12_60min_20260417_024953/sumo_nets/cw_8430/network.net.xml"/>
    <output-trip-file value="/Users/junlee/Desktop/2026-1/js/result/tradeoff_pet_top12_seed12_60min_20260417_024953/sumo_nets/cw_8430/routes_seed42.trips.xml"/>
    <route-file value="/Users/junlee/Desktop/2026-1/js/result/tradeoff_pet_top12_seed12_60min_20260417_024953/sumo_nets/cw_8430/routes_seed42.rou.xml"/>
    <vehicle-class value="passenger"/>
    <period value="1.9663621162215763"/>
</configuration>
-->

<!-- generated on 2026-04-17T02:50:58.371532+09:00 by Eclipse SUMO duarouter 1.26.0
<duarouterConfiguration xmlns:xsi="http://www.w3.org/2001/XMLSchema-instance" xsi:noNamespaceSchemaLocation="http://sumo.dlr.de/xsd/duarouterConfiguration.xsd">

    <input>
        <net-file value="/Users/junlee/Desktop/2026-1/js/result/tradeoff_pet_top12_seed12_60min_20260417_024953/sumo_nets/cw_8430/network.net.xml"/>
        <route-files value="/Users/junlee/Desktop/2026-1/js/result/tradeoff_pet_top12_seed12_60min_20260417_024953/sumo_nets/cw_8430/routes_seed42.trips.xml"/>
    </input>

    <output>
        <output-file value="/Users/junlee/Desktop/2026-1/js/result/tradeoff_pet_top12_seed12_60min_20260417_024953/sumo_nets/cw_8430/routes_seed42.rou.xml"/>
        <alternatives-output value="NUL"/>
    </output>

    <time>
        <begin value="0.0"/>
        <end value="3600.0"/>
    </time>

    <report>
        <no-warnings value="true"/>
        <ignore-errors value="true"/>
        <no-step-log value="true"/>
    </report>

</duarouterConfiguration>
-->

<routes xmlns:xsi="http://www.w3.org/2001/XMLSchema-instance" xsi:noNamespaceSchemaLocation="http://sumo.dlr.de/xsd/routes_file.xsd">
    <vType id="passenger" vClass="passenger"/>
    <vehicle id="0" type="passenger" depart="0.00">
        <route edges="381452123#1 381452118#6 381452118#7 218681380#3 218681380#4 218681380#5 218681380#7 -218960891#7 913717725 -218681380#5 -218681380#4"/>
    </vehicle>
    <vehicle id="1" type="passenger" depart="1.97">
        <route edges="-381458600#0 -381458592#2 -381458592#1 -381458592#0 -381458586"/>
    </vehicle>
    <vehicle id="2" type="passenger" depart="3.93">
        <route edges="381458592#4 381458592#5 218681380#1 381452165#0"/>
    </vehicle>
    <vehicle id="3" type="passenger" depart="5.90">
        <route edges="420314177 381458600#1 218681380#2 218681380#3 218681380#4 218681380#5 218681380#7 -218960891#7 -218960891#6 -218960891#5 -218960891#4"/>
    </vehicle>
    <vehicle id="4" type="passenger" depart="7.87">
        <route edges="-519097168#1 -458731949 -218910324#1 -218910324#0 -218681380#7 -218681380#5"/>
    </vehicle>
    <vehicle id="5" type="passenger" depart="9.83">
        <route edges="-381458583#2 -381458583#1 -381458583#0 -218681380#5 -218681380#4 -218681380#3 -218681380#2 381452165#0 381452126#1 -381452118#0 520307305#1 218681380#1"/>
    </vehicle>
    <vehicle id="6" type="passenger" depart="11.80">
        <route edges="-218681380#4 381458603#0 381458603#1 420187962#1 420187962#2 420187962#3 -218910324#0 -218960891#7 -218960891#6 -218960891#5 -218960891#4 -218960891#3 -381452185#2"/>
    </vehicle>
    <vehicle id="7" type="passenger" depart="13.76">
        <route edges="381452126#1 -381452118#0 520307305#1 218681380#1 218681380#2 218681380#3 218681380#4 218681380#5 218681380#7 218910324#0 218910324#1"/>
    </vehicle>
    <vehicle id="8" type="passenger" depart="15.73">
        <route edges="-381458583#2 -381458583#1 -381458583#0 -218681380#5 381452100#0 381452185#2 218960891#3 218960891#4 218960891#5"/>
    </vehicle>
    <vehicle id="9" type="passenger" depart="17.70">
        <route edges="381746303#1 -381746304#0 920025287#4 519097168#2 519097168#4 -218681380#7 -218681380#5 -218681380#4 -218681380#3 -218681380#2 -218681380#1"/>
    </vehicle>
    <vehicle id="10" type="passenger" depart="19.66">
        <route edges="381746303#0 381746303#1 -381746304#0 920025287#4 519097168#2 519097168#4 -218960891#7 -218960891#6 -218960891#5 -218960891#4 -218960891#3 -381452185#2 -381452185#1 381452183#1"/>
    </vehicle>
    <vehicle id="11" type="passenger" depart="21.63">
        <route edges="-381746313 519097168#4 -218681380#7 -218681380#5 -218681380#4 -218681380#3 -218681380#2 381452165#0 -381452126#0"/>
    </vehicle>
    <vehicle id="12" type="passenger" depart="23.60">
        <route edges="913717725 218681380#7 -519097168#4 -519097168#2 -920025287#4 381746304#0 -381746303#1 -381746304#1"/>
    </vehicle>
    <vehicle id="13" type="passenger" depart="25.56">
        <route edges="-218960891#5 -218960891#4 -218960891#3 -381452185#2 -381452100#0 218681380#5 218681380#7 -218960891#7 -218960891#6"/>
    </vehicle>
    <vehicle id="14" type="passenger" depart="27.53">
        <route edges="381746325#1 920025287#0 920025287#1 920025287#2 -381746313 519097168#4 -218681380#7 -218681380#5 381452100#0 381452185#2 218960891#3 218960891#4 218960891#5 218960891#6 218960891#7"/>
    </vehicle>
    <vehicle id="15" type="passenger" depart="29.50">
        <route edges="381746303#0 381746303#1 -381746304#0 920025287#4 519097168#2 519097168#4 218910324#0 218910324#1 218910324#2 218910324#3 -381458593 381458583#5"/>
    </vehicle>
    <vehicle id="16" type="passenger" depart="31.46">
        <route edges="218910324#2 -519097167#1 -519097167#0 519097166#0 519097168#1 519097168#2 519097168#4 -218960891#7 -218960891#6 -218960891#5 375125202 920025286"/>
    </vehicle>
    <vehicle id="17" type="passenger" depart="33.43">
        <route edges="-420187962#3 -381458583#0 218681380#7 218910324#0 218910324#1 218910324#2 218910324#3"/>
    </vehicle>
    <vehicle id="18" type="passenger" depart="35.39">
        <route edges="381746311 -381452185#2 381452100#1"/>
    </vehicle>
    <vehicle id="19" type="passenger" depart="37.36">
        <route edges="420103662#1 218960891#2"/>
    </vehicle>
    <vehicle id="20" type="passenger" depart="39.33">
        <route edges="381458583#2 381458593 -218910324#3 -218910324#2 -218910324#1"/>
    </vehicle>
    <vehicle id="21" type="passenger" depart="41.29">
        <route edges="-381458583#5 -381458583#2 -381458608#1 -381458608#0"/>
    </vehicle>
    <vehicle id="22" type="passenger" depart="43.26">
        <route edges="-218960891#3 -381452185#2 -381452100#0 381458608#0 -420187962#1 -420187962#0 -381458592#0"/>
    </vehicle>
    <vehicle id="23" type="passenger" depart="45.23">
        <route edges="-218960891#6 -218960891#5 -218960891#4 -218960891#3 -381452185#2 -381452185#1 -381452183#0 -381452165#2 -381452165#1 -381452165#0 -381458600#1"/>
    </vehicle>
    <vehicle id="24" type="passenger" depart="47.19">
        <route edges="381452123#0 381452165#2 381452183#0 381452185#1 381452185#2 -218960891#2 -420103662#1"/>
    </vehicle>
    <vehicle id="25" type="passenger" depart="49.16">
        <route edges="-420187962#1 -381458603#1 -381458603#0 218681380#4 381458608#0 381458608#1 -381458583#1"/>
    </vehicle>
    <vehicle id="26" type="passenger" depart="51.13">
        <route edges="-381458593 -381458583#2 -381458583#1 420187962#3 218910324#1 458731949 519097168#1"/>
    </vehicle>
    <vehicle id="27" type="passenger" depart="53.09">
        <route edges="381452126#0 -381452165#0 218681380#2 218681380#3 218681380#4 218681380#5 218681380#7 -218960891#7 -218960891#6 -218960891#5 375125202"/>
    </vehicle>
    <vehicle id="28" type="passenger" depart="55.06">
        <route edges="-381452165#0 218681380#2 218681380#3 218681380#4 218681380#5 218681380#7 218910324#0 218910324#1 218910324#2 218910324#3 -381458593 381458583#5"/>
    </vehicle>
    <vehicle id="29" type="passenger" depart="57.02">
        <route edges="-381452126#0 381452118#7 218681380#3 218681380#4 381458608#0 -420187962#1"/>
    </vehicle>
    <vehicle id="30" type="passenger" depart="58.99">
        <route edges="920025287#3 920025287#4 519097168#2 519097168#4 -218960891#7 -218960891#6 -218960891#5 -218960891#4 -218960891#3 -381452185#2 -381452185#1 -381452183#0 381452118#5"/>
    </vehicle>
    <vehicle id="31" type="passenger" depart="60.96">
        <route edges="218960891#1 218960891#2 -381452185#2 -381452185#1 -381452183#0 381452118#5 -381452123#1 381452165#2"/>
    </vehicle>
    <vehicle id="32" type="passenger" depart="62.92">
        <route edges="381746325#0 117770556#4 920025287#0 920025287#1 920025287#2 -381746313 519097168#4 -218681380#7 -218681380#5 -218681380#4 -218681380#3 -218681380#2 -218681380#1 -381458592#5 -381458592#4 381458600#0"/>
    </vehicle>
    <vehicle id="33" type="passenger" depart="64.89">
        <route edges="-381458586 381458593 -218910324#3 -218910324#2 -218910324#1 -218910324#0 -218681380#7"/>
    </vehicle>
    <vehicle id="34" type="passenger" depart="66.86">
        <route edges="-381746304#0 920025287#4 519097168#2 519097168#4 -218681380#7 -218681380#5 -218681380#4 -218681380#3 -218681380#2 -381458600#1 -381458600#0"/>
    </vehicle>
    <vehicle id="35" type="passenger" depart="68.82">
        <route edges="-381458583#0 218681380#7 218910324#0 218910324#1 458731949 519097168#1 519097168#2"/>
    </vehicle>
    <vehicle id="36" type="passenger" depart="70.79">
        <route edges="420187962#1 420187962#2 420187962#3 913718470 -519097168#2 -519097168#1 -519097166#0 -381741964"/>
    </vehicle>
    <vehicle id="37" type="passenger" depart="72.76">
        <route edges="381452165#0 -381452126#0 381452118#7 -218681380#2 -381458600#1 -420314177"/>
    </vehicle>
    <vehicle id="38" type="passenger" depart="74.72">
        <route edges="519097167#0 519097167#1 -218910324#2 -218910324#1 -218910324#0 -218960891#7 381746315 -920025287#1 -920025287#0"/>
    </vehicle>
    <vehicle id="39" type="passenger" depart="76.69">
        <route edges="-381458592#5 -381458592#4"/>
    </vehicle>
    <vehicle id="40" type="passenger" depart="78.65">
        <route edges="218960891#2 218960891#3 218960891#4 218960891#5 218960891#6 218960891#7 218910324#0 218910324#1 218910324#2 218910324#3 -381458593 -381458598"/>
    </vehicle>
    <vehicle id="41" type="passenger" depart="80.62">
        <route edges="218960891#6 913717725 381458583#0 420187962#3"/>
    </vehicle>
    <vehicle id="42" type="passenger" depart="82.59">
        <route edges="-519097166#0 519097167#0 519097167#1 -218910324#2 -218910324#1 -420187962#3 -420187962#2 -420187962#1 -420187962#0 -381458592#0 -381458586"/>
    </vehicle>
    <vehicle id="43" type="passenger" depart="84.55">
        <route edges="920025287#4 519097168#2 519097168#4 -218681380#7 -218681380#5 -218681380#4 -218681380#3 -381452118#7 381452126#0 -381452165#0 218681380#2"/>
    </vehicle>
    <vehicle id="44" type="passenger" depart="86.52">
        <route edges="-218960891#5 375125202 920025287#0 920025287#1 920025287#2 920025287#3 920025287#4 -519097168#1 -458731949 -218910324#1"/>
    </vehicle>
    <vehicle id="45" type="passenger" depart="88.49">
        <route edges="-381452100#0 -218681380#4 -218681380#3 -218681380#2 -218681380#1 -218681380#0 381452118#0 381452118#1"/>
    </vehicle>
    <vehicle id="46" type="passenger" depart="90.45">
        <route edges="381741927 -519097167#0 519097166#0 -458731949 218910324#2 -519097167#1"/>
    </vehicle>
    <vehicle id="47" type="passenger" depart="92.42">
        <route edges="-218910324#4 -218910324#3 -218910324#2 -218910324#1 -420187962#3 -420187962#2"/>
    </vehicle>
    <vehicle id="48" type="passenger" depart="94.39">
        <route edges="920025287#4 519097168#2 519097168#4 218910324#0 -420187962#3 -420187962#2 -381458608#0 218681380#5"/>
    </vehicle>
    <vehicle id="49" type="passenger" depart="96.35">
        <route edges="920025286 -381746325#0 -218960891#3 -381746311 117770556#3 381746325#1"/>
    </vehicle>
    <vehicle id="50" type="passenger" depart="98.32">
        <route edges="-218681380#2 381452165#0 -381452126#0 381452118#7 218681380#3 218681380#4 218681380#5 381458583#0 381458583#1"/>
    </vehicle>
    <vehicle id="51" type="passenger" depart="100.28">
        <route edges="381452185#1 381452185#2 218960891#3 218960891#4 218960891#5 218960891#6 218960891#7 218910324#0"/>
    </vehicle>
    <vehicle id="52" type="passenger" depart="102.25">
        <route edges="-381458593 -381458583#2 -381458583#1 -381458583#0 -218681380#5 -218681380#4 -218681380#3 -218681380#2 381452165#0 381452165#1 381452165#2 381452118#5"/>
    </vehicle>
    <vehicle id="53" type="passenger" depart="104.22">
        <route edges="-381452100#0 218681380#5 218681380#7 -519097168#4 -519097168#2"/>
    </vehicle>
    <vehicle id="54" type="passenger" depart="106.18">
        <route edges="-920025287#3 -381746313 519097168#4 -218681380#7 -218681380#5 -218681380#4 -218681380#3 -218681380#2 381452165#0 381452126#1 -381452118#0 520307305#1"/>
    </vehicle>
    <vehicle id="55" type="passenger" depart="108.15">
        <route edges="420187962#1 420187962#2 381458583#1 381458583#2 -381458598"/>
    </vehicle>
    <vehicle id="56" type="passenger" depart="110.12">
        <route edges="218681380#3 218681380#4 381452100#0 -381452185#1 -381452183#0 -381452165#2"/>
    </vehicle>
    <vehicle id="57" type="passenger" depart="112.08">
        <route edges="519097167#0 519097167#1 -218910324#2 -218910324#1 -218910324#0 -218960891#7 -218960891#6 -218960891#5 -218960891#4 -218960891#3 -218960891#2 -218960891#1 381746451#0 381746451#1"/>
    </vehicle>
    <vehicle id="58" type="passenger" depart="114.05">
        <route edges="-381458608#1 -381458608#0 -218681380#4 -218681380#3 -218681380#2 381452165#0 381452165#1 381452165#2 381452118#5"/>
    </vehicle>
    <vehicle id="59" type="passenger" depart="116.02">
        <route edges="381452118#1 381452118#3 381452118#5 -381452123#1"/>
    </vehicle>
    <vehicle id="60" type="passenger" depart="117.98">
        <route edges="381458600#1 218681380#2 218681380#3 218681380#4 218681380#5 218681380#7 218910324#0"/>
    </vehicle>
    <vehicle id="61" type="passenger" depart="119.95">
        <route edges="381458608#0 420187962#2 -381458583#0 218681380#7"/>
    </vehicle>
    <vehicle id="62" type="passenger" depart="121.91">
        <route edges="-218681380#0 381452118#0 -381452126#1 -381452165#0 218681380#2 218681380#3 218681380#4 218681380#5 218681380#7 -519097168#4 -519097168#2 -920025287#4 381746304#0 -381746303#1"/>
    </vehicle>
    <vehicle id="63" type="passenger" depart="123.88">
        <route edges="-218681380#3 -218681380#2 381452165#0 -381452126#0 381452118#7 218681380#3 218681380#4 218681380#5 218681380#7 -519097168#4 -519097168#2 -519097168#1 -519097166#0 519097167#0 519097167#1"/>
    </vehicle>
    <vehicle id="64" type="passenger" depart="125.85">
        <route edges="420187962#2 420187962#3 -218910324#0 -218960891#7 -218960891#6 381746308"/>
    </vehicle>
    <vehicle id="65" type="passenger" depart="127.81">
        <route edges="-381741961 519097168#0 519097168#1 519097168#2 519097168#4 -218681380#7 381458583#0 381458583#1 381458583#2 381458593 -218910324#3"/>
    </vehicle>
    <vehicle id="66" type="passenger" depart="129.78">
        <route edges="420187962#2 420187962#3 913718470 519097168#4"/>
    </vehicle>
    <vehicle id="67" type="passenger" depart="131.75">
        <route edges="-218960891#4 -218960891#3 -218960891#2 -218960891#1 381746451#0 117770556#1"/>
    </vehicle>
    <vehicle id="68" type="passenger" depart="133.71">
        <route edges="-218960891#1 381746451#0 117770556#1 420103662#1 218960891#2 218960891#3 218960891#4 218960891#5 218960891#6 913717725 -218681380#5 -218681380#4 -218681380#3 -218681380#2 -381458600#1 -381458600#0 381458592#4"/>
    </vehicle>
    <vehicle id="69" type="passenger" depart="135.68">
        <route edges="381458600#1 218681380#2 -381452118#7 -381452118#6 -381452118#5"/>
    </vehicle>
    <vehicle id="70" type="passenger" depart="137.65">
        <route edges="117770556#2 381746311 218960891#3 218960891#4 218960891#5 218960891#6 218960891#7 218910324#0 218910324#1 218910324#2"/>
    </vehicle>
    <vehicle id="71" type="passenger" depart="139.61">
        <route edges="-381458592#5 -381458592#4 381458600#0 381458600#1 218681380#2 218681380#3 218681380#4 218681380#5 218681380#7 -218960891#7 -218960891#6 -218960891#5 -218960891#4 -218960891#3 -218960891#2 -218960891#1 381746451#0 117770556#1 420103662#1"/>
    </vehicle>
    <vehicle id="72" type="passenger" depart="141.58">
        <route edges="-519097168#1 -458731949 218910324#2 218910324#3 -381458593 -381458583#2 -381458583#1"/>
    </vehicle>
    <vehicle id="73" type="passenger" depart="143.54">
        <route edges="218910324#3 -381458593 381458583#5"/>
    </vehicle>
    <vehicle id="74" type="passenger" depart="145.51">
        <route edges="-381452185#1 -381452183#0 381452118#5 381452118#6 381452118#7 218681380#3 218681380#4 218681380#5 218681380#7 -519097168#4 -519097168#2 -519097168#1 -519097166#0 -381741964"/>
    </vehicle>
    <vehicle id="75" type="passenger" depart="147.48">
        <route edges="920025287#4 519097168#2 519097168#4 -218681380#7 -218681380#5 -218681380#4 -218681380#3 -218681380#2 381452165#0 -381452126#0 381452118#7"/>
    </vehicle>
    <vehicle id="76" type="passenger" depart="149.44">
        <route edges="-920025287#0 920025286 -381746325#0 -218960891#3 -381452185#2 -381452185#1 -381452183#0 381452118#5 381452118#6 381452118#7 218681380#3"/>
    </vehicle>
    <vehicle id="77" type="passenger" depart="151.41">
        <route edges="-381452118#0 520307305#1 218681380#1 -381458600#1 -381458600#0 -381458590"/>
    </vehicle>
    <vehicle id="78" type="passenger" depart="153.38">
        <route edges="-381746313 519097168#4 -218681380#7 -218681380#5 381452100#0 381452185#2 218960891#3 218960891#4 218960891#5"/>
    </vehicle>
    <vehicle id="79" type="passenger" depart="155.34">
        <route edges="-381458586"/>
    </vehicle>
    <vehicle id="80" type="passenger" depart="157.31">
        <route edges="-218960891#1 381746451#0 117770556#1 420103662#1 218960891#2 -381452185#2 -381452185#1 -381452183#0 -381452165#2 -381452123#0 381452118#3"/>
    </vehicle>
    <vehicle id="81" type="passenger" depart="159.28">
        <route edges="-381458586 -381458583#2 -381458608#1 -420187962#1 -381458603#1 420314177"/>
    </vehicle>
    <vehicle id="82" type="passenger" depart="161.24">
        <route edges="420103662#0 420103662#1 -218960891#1"/>
    </vehicle>
    <vehicle id="83" type="passenger" depart="163.21">
        <route edges="-381458587 381458592#2 381458600#0 381458600#1 381452165#0 381452126#1"/>
    </vehicle>
    <vehicle id="84" type="passenger" depart="165.17">
        <route edges="-381458583#1 -381458583#0 -218681380#5 -218681380#4 -218681380#3 -381452118#7 -381452118#6 -381452118#5"/>
    </vehicle>
    <vehicle id="85" type="passenger" depart="167.14">
        <route edges="117770556#1 420103662#1 218960891#2 218960891#3 218960891#4 218960891#5 218960891#6 913717725 -218681380#5 -218681380#4 381458603#0 420314177 381458600#1"/>
    </vehicle>
    <vehicle id="86" type="passenger" depart="169.11">
        <route edges="381746303#0 381746303#1 -381746304#0 920025287#4 519097168#2 519097168#4 -218960891#7 -218960891#6 -218960891#5 -218960891#4 -218960891#3 -381452185#2 -381452185#1 -381452185#0"/>
    </vehicle>
    <vehicle id="87" type="passenger" depart="171.07">
        <route edges="-218960891#6 -218960891#5 375125202 920025287#0 920025287#1 920025287#2 920025287#3 920025287#4 -519097168#1"/>
    </vehicle>
    <vehicle id="88" type="passenger" depart="173.04">
        <route edges="-519097168#1 -458731949 -218910324#1 913718470 381746313 -920025287#2"/>
    </vehicle>
    <vehicle id="89" type="passenger" depart="175.01">
        <route edges="381458592#2 381458600#0 381458600#1 381452165#0 381452126#1"/>
    </vehicle>
    <vehicle id="90" type="passenger" depart="176.97">
        <route edges="920025287#2 -381746313 519097168#4 -218960891#7 -218960891#6"/>
    </vehicle>
    <vehicle id="91" type="passenger" depart="178.94">
        <route edges="-519097166#0 519097167#0 519097167#1 -218910324#2 -218910324#1 -218910324#0 -218960891#7 -218960891#6 -218960891#5 -218960891#4 -218960891#3 -381746311"/>
    </vehicle>
    <vehicle id="92" type="passenger" depart="180.91">
        <route edges="420103662#0 420103662#1 218960891#2 218960891#3 218960891#4 218960891#5 218960891#6 913717725 -218681380#5 -218681380#4 -218681380#3 -218681380#2 -218681380#1 -381458592#5 -381458592#4"/>
    </vehicle>
    <vehicle id="93" type="passenger" depart="182.87">
        <route edges="-381452183#0 -381452118#3 -381452118#1 -381452118#0 -520307305#0"/>
    </vehicle>
    <vehicle id="94" type="passenger" depart="184.84">
        <route edges="-519097168#1 -458731949 -218910324#1 -420187962#3 -420187962#2 -420187962#1 -381458603#1 -381458603#0"/>
    </vehicle>
    <vehicle id="95" type="passenger" depart="186.80">
        <route edges="-381458592#1 420187962#0 420187962#1 420187962#2 420187962#3 913718470 -519097168#2 -519097168#1 -519097166#0 519097167#0"/>
    </vehicle>
    <vehicle id="96" type="passenger" depart="188.77">
        <route edges="-920025287#1 -920025287#0 920025286 -381746325#0 -218960891#3 -218960891#2 -218960891#1 381746451#0"/>
    </vehicle>
    <vehicle id="97" type="passenger" depart="190.74">
        <route edges="218960891#0 218960891#1 218960891#2 218960891#3 218960891#4 218960891#5 218960891#6 218960891#7 -519097168#4 -519097168#2 -519097168#1 -519097166#0 519097167#0 519097167#1 -218910324#2"/>
    </vehicle>
    <vehicle id="98" type="passenger" depart="192.70">
        <route edges="920025287#4 519097168#2 519097168#4 -218960891#7 -218960891#6 -218960891#5 -218960891#4 -218960891#3 -218960891#2 -420103662#1 117770556#2 381746311"/>
    </vehicle>
    <vehicle id="99" type="passenger" depart="194.67">
        <route edges="920025286 -381746325#0 218960891#4 218960891#5 218960891#6 218960891#7 -519097168#4 -519097168#2 -519097168#1 -519097166#0 519097167#0 519097167#1"/>
    </vehicle>
    <vehicle id="100" type="passenger" depart="196.64">
        <route edges="381746325#1 920025287#0 920025287#1 920025287#2 -381746313 519097168#4 -218681380#7 -218681380#5 -218681380#4 -218681380#3 -381452118#7 381452126#0 -381452165#0"/>
    </vehicle>
    <vehicle id="101" type="passenger" depart="198.60">
        <route edges="117770556#4 920025287#0 920025287#1 920025287#2 -381746313 519097168#4 218910324#0 218910324#1 218910324#2 218910324#3 -381458593 -381458583#2 -381458583#1"/>
    </vehicle>
    <vehicle id="102" type="passenger" depart="200.57">
        <route edges="-519097166#0 519097167#0 519097167#1 -218910324#2 -218910324#1 -420187962#3 381458583#1 381458583#2 381458593 -218910324#3"/>
    </vehicle>
    <vehicle id="103" type="passenger" depart="202.54">
        <route edges="-420187962#3 -381458583#0 218681380#7 -218960891#7 381746315 920025287#2"/>
    </vehicle>
    <vehicle id="104" type="passenger" depart="204.50">
        <route edges="-381458592#5 -381458592#4 381458600#0 381458600#1"/>
    </vehicle>
    <vehicle id="105" type="passenger" depart="206.47">
        <route edges="-920025287#3 -381746313 -519097168#2 -519097168#1 -519097168#0"/>
    </vehicle>
    <vehicle id="106" type="passenger" depart="208.43">
        <route edges="913717725 218681380#7 -519097168#4 381746313 920025287#3 920025287#4"/>
    </vehicle>
    <vehicle id="107" type="passenger" depart="210.40">
        <route edges="218960891#1 218960891#2 218960891#3 218960891#4 218960891#5 218960891#6 913717725 381458583#0 381458583#1"/>
    </vehicle>
    <vehicle id="108" type="passenger" depart="212.37">
        <route edges="-381452123#1 -381452165#1 -381452165#0 218681380#2 218681380#3 218681380#4 218681380#5 381458583#0 381458583#1 -381458608#1"/>
    </vehicle>
    <vehicle id="109" type="passenger" depart="214.33">
        <route edges="920025286 -381746325#0 -218960891#3 -218960891#2 -420103662#1 117770556#2 381746311 218960891#3"/>
    </vehicle>
    <vehicle id="110" type="passenger" depart="216.30">
        <route edges="218910324#3 -381458593 381458586 381458592#0"/>
    </vehicle>
    <vehicle id="111" type="passenger" depart="218.27">
        <route edges="-218910324#3 -218910324#2 -218910324#1 -218910324#0 -218681380#7 -218681380#5 381452100#0 381452185#2 218960891#3 218960891#4"/>
    </vehicle>
    <vehicle id="112" type="passenger" depart="220.23">
        <route edges="218681380#3 218681380#4 218681380#5 218681380#7 -218960891#7 -218960891#6 -218960891#5 -218960891#4 381746325#0"/>
    </vehicle>
    <vehicle id="113" type="passenger" depart="222.20">
        <route edges="-381452123#1 381452165#2 381452183#0 381452185#1 381452185#2 218960891#3 218960891#4 218960891#5 218960891#6 913717725"/>
    </vehicle>
    <vehicle id="114" type="passenger" depart="224.17">
        <route edges="-218960891#3 -381452185#2 -381452185#1 -381452183#0"/>
    </vehicle>
    <vehicle id="115" type="passenger" depart="226.13">
        <route edges="375125202 920025287#0 920025287#1 920025287#2 -381746313 519097168#4 -218681380#7 -218681380#5 -218681380#4 -218681380#3 -218681380#2 381452165#0"/>
    </vehicle>
    <vehicle id="116" type="passenger" depart="228.10">
        <route edges="-381458587 381458592#2 381458600#0 381458600#1 381452165#0 381452165#1 -381452123#0 -381452118#1"/>
    </vehicle>
    <vehicle id="117" type="passenger" depart="230.06">
        <route edges="420314177 381458600#1 -218681380#1 -381458592#5 -381458592#4"/>
    </vehicle>
    <vehicle id="118" type="passenger" depart="232.03">
        <route edges="375125202 920025286 -381746325#0 -218960891#3 -381452185#2 381452100#1"/>
    </vehicle>
    <vehicle id="119" type="passenger" depart="234.00">
        <route edges="-519097168#0 381741961 519097166#0 519097168#1 519097168#2 519097168#4 -218681380#7 -218681380#5 381452100#0 381452185#2 218960891#3 218960891#4"/>
    </vehicle>
    <vehicle id="120" type="passenger" depart="235.96">
        <route edges="218910324#0 218910324#1 218910324#2 -519097167#1 -519097167#0 -381741961 519097168#0"/>
    </vehicle>
    <vehicle id="121" type="passenger" depart="237.93">
        <route edges="-381452185#2 -381452100#0 218681380#5 381458583#0"/>
    </vehicle>
    <vehicle id="122" type="passenger" depart="239.90">
        <route edges="-381458587 381458592#2 381458600#0 381458600#1 381452165#0 381452165#1 -381452123#0 -420317539"/>
    </vehicle>
    <vehicle id="123" type="passenger" depart="241.86">
        <route edges="381452183#0 381452185#1 381452185#2 218960891#3 218960891#4 218960891#5 218960891#6 218960891#7 218910324#0 218910324#1 218910324#2 -519097167#1 -381741927"/>
    </vehicle>
    <vehicle id="124" type="passenger" depart="243.83">
        <route edges="-381746304#0 920025287#4 519097168#2 519097168#4 218910324#0 -420187962#3 -420187962#2 -420187962#1 -420187962#0 381458592#1"/>
    </vehicle>
    <vehicle id="125" type="passenger" depart="245.80">
        <route edges="-218960891#1 381746451#0 117770556#1 420103662#1 218960891#2 218960891#3 218960891#4 218960891#5 218960891#6 381746315 -920025287#1 -920025287#0"/>
    </vehicle>
    <vehicle id="126" type="passenger" depart="247.76">
        <route edges="920025287#4"/>
    </vehicle>
    <vehicle id="127" type="passenger" depart="249.73">
        <route edges="-218960891#1 381746451#0 117770556#1 420103662#1 218960891#2 218960891#3 218960891#4 218960891#5 218960891#6 218960891#7 218910324#0 218910324#1 218910324#2 218910324#3 -381458593 -381458583#2 -381458583#1"/>
    </vehicle>
    <vehicle id="128" type="passenger" depart="251.69">
        <route edges="-381458592#5 -381458592#4 381458600#0 381458600#1 218681380#2 218681380#3 218681380#4 218681380#5 218681380#7 -519097168#4 -519097168#2 -519097168#1 -519097166#0 -381741961 519097168#0"/>
    </vehicle>
    <vehicle id="129" type="passenger" depart="253.66">
        <route edges="420187962#2 381458583#1 381458583#2 381458586 381458592#0 420187962#0"/>
    </vehicle>
    <vehicle id="130" type="passenger" depart="255.63">
        <route edges="-420187962#1 -381458603#1 -381458603#0 -218681380#3 -218681380#2 381452165#0 -381452126#0"/>
    </vehicle>
    <vehicle id="131" type="passenger" depart="257.59">
        <route edges="381746313 920025287#3 920025287#4 519097168#2 519097168#4 -218681380#7 -218681380#5 -218681380#4 -218681380#3 -381452118#7 -381452118#6 -381452118#5 381452183#0 381452185#1"/>
    </vehicle>
    <vehicle id="132" type="passenger" depart="259.56">
        <route edges="381452118#1 381452118#3 381452183#0 381452185#1 381452185#2 218960891#3 218960891#4 218960891#5 218960891#6 381746315 920025287#2"/>
    </vehicle>
    <vehicle id="133" type="passenger" depart="261.53">
        <route edges="381452126#1 381452118#1 381452123#0 -381452165#1 -381452165#0 -218681380#1"/>
    </vehicle>
    <vehicle id="134" type="passenger" depart="263.49">
        <route edges="381746304#0 381746304#1 381746303#1 -381746304#0 920025287#4 519097168#2 519097168#4 -218681380#7 381458583#0 381458583#1 -381458608#1"/>
    </vehicle>
    <vehicle id="135" type="passenger" depart="265.46">
        <route edges="381452165#1 381452123#1 381452118#6 381452118#7 218681380#3 218681380#4 218681380#5 218681380#7 218910324#0 218910324#1 458731949 519097168#1"/>
    </vehicle>
    <vehicle id="136" type="passenger" depart="267.43">
        <route edges="-381452118#5 -381452118#3 -381452118#1 -381452118#0"/>
    </vehicle>
    <vehicle id="137" type="passenger" depart="269.39">
        <route edges="-381452100#0 218681380#5 218681380#7 218910324#0 218910324#1 218910324#2 218910324#3"/>
    </vehicle>
    <vehicle id="138" type="passenger" depart="271.36">