<?xml version='1.0' encoding='utf-8'?>
<routes>
  <vType id="adult" vClass="pedestrian" minGap="0.25" width="0.5" length="0.25" maxSpeed="1.5" speedDev="0.1" />
  <vType id="elderly" vClass="pedestrian" minGap="0.25" width="0.5" length="0.25" maxSpeed="1.13" speedDev="0.15" color="255,0,0" />
  <person id="ped_0" depart="0.29" type="adult">
    <walk from="-381458583#2" to="-381458608#1" />
  </person>
  <person id="ped_1" depart="2.00" type="adult">
    <walk from="-381458583#2" to="-381458608#1" />
  </person>
  <person id="ped_2" depart="39.89" type="adult">
    <walk from="-381458583#2" to="-381458608#1" />
  </person>
  <person id="ped_3" depart="78.72" type="adult">
    <walk from="-381458583#2" to="-381458608#1" />
  </person>
  <person id="ped_4" depart="80.74" type="adult">
    <walk from="-381458583#2" to="-381458608#1" />
  </person>
  <person id="ped_5" depart="107.48" type="adult">
    <walk from="-381458583#2" to="-381458608#1" />
  </person>
  <person id="ped_6" depart="113.49" type="adult">
    <walk from="-381458583#2" to="-381458608#1" />
  </person>
  <person id="ped_7" depart="166.04" type="adult">
    <walk from="-381458583#2" to="-381458608#1" />
  </person>
  <person id="ped_8" depart="166.38" type="adult">
    <walk from="-381458583#2" to="-381458608#1" />
  </person>
  <person id="ped_9" depart="215.10" type="adult">
    <walk from="-381458583#2" to="-381458608#1" />
  </person>
  <person id="ped_10" depart="221.67" type="adult">
    <walk from="-381458583#2" to="-381458608#1" />
  </person>
  <person id="ped_11" depart="230.10" type="elderly">
    <walk from="-381458583#2" to="-381458608#1" />
  </person>
  <person id="ped_12" depart="273.85" type="adult">
    <walk from="-381458583#2" to="-381458608#1" />
  </person>
  <person id="ped_13" depart="274.37" type="adult">
    <walk from="-381458583#2" to="-381458608#1" />
  </person>
  <person id="ped_14" depart="291.24" type="elderly">
    <walk from="-381458583#2" to="-381458608#1" />
  </person>
  <person id="ped_15" depart="315.20" type="adult">
    <walk from="-381458583#2" to="-381458608#1" />
  </person>
  <person id="ped_16" depart="327.38" type="elderly">
    <walk from="-381458583#2" to="-381458608#1" />
  </person>
  <person id="ped_17" depart="330.01" type="adult">
    <walk from="-381458583#2" to="-381458608#1" />
  </person>
  <person id="ped_18" depart="363.45" type="adult">
    <walk from="-381458583#2" to="-381458608#1" />
  </person>
  <person id="ped_19" depart="438.20" type="adult">
    <walk from="-381458583#2" to="-381458608#1" />
  </person>
  <person id="ped_20" depart="496.54" type="adult">
    <walk from="-381458583#2" to="-381458608#1" />
  </person>
  <person id="ped_21" depart="498.72" type="elderly">
    <walk from="-381458583#2" to="-381458608#1" />
  </person>
  <person id="ped_22" depart="553.79" type="adult">
    <walk from="-381458583#2" to="-381458608#1" />
  </person>
  <person id="ped_23" depart="568.71" type="adult">
    <walk from="-381458583#2" to="-381458608#1" />
  </person>
  <person id="ped_24" depart="579.32" type="adult">
    <walk from="-381458583#2" to="-381458608#1" />
  </person>
  <person id="ped_25" depart="645.18" type="adult">
    <walk from="-381458583#2" to="-381458608#1" />
  </person>
  <person id="ped_26" depart="680.44" type="adult">
    <walk from="-381458583#2" to="-381458608#1" />
  </person>
  <person id="ped_27" depart="711.35" type="adult">
    <walk from="-381458583#2" to="-381458608#1" />
  </person>
  <person id="ped_28" depart="719.89" type="adult">
    <walk from="-381458583#2" to="-381458608#1" />
  </person>
  <person id="ped_29" depart="726.53" type="adult">
    <walk from="-381458583#2" to="-381458608#1" />
  </person>
  <person id="ped_30" depart="766.49" type="adult">
    <walk from="-381458583#2" to="-381458608#1" />
  </person>
  <person id="ped_31" depart="778.80" type="adult">
    <walk from="-381458583#2" to="-381458608#1" />
  </person>
  <person id="ped_32" depart="796.03" type="elderly">
    <walk from="-381458583#2" to="-381458608#1" />
  </person>
  <person id="ped_33" depart="831.55" type="adult">
    <walk from="-381458583#2" to="-381458608#1" />
  </person>
  <person id="ped_34" depart="847.19" type="adult">
    <walk from="-381458583#2" to="-381458608#1" />
  </person>
  <person id="ped_35" depart="863.08" type="adult">
    <walk from="-381458583#2" to="-381458608#1" />
  </person>
  <person id="ped_36" depart="864.33" type="adult">
    <walk from="-381458583#2" to="-381458608#1" />
  </person>
  <person id="ped_37" depart="881.09" type="adult">
    <walk from="-381458583#2" to="-381458608#1" />
  </person>
  <person id="ped_38" depart="925.61" type="adult">
    <walk from="-381458583#2" to="-381458608#1" />
  </person>
  <person id="ped_39" depart="929.07" type="adult">
    <walk from="-381458583#2" to="-381458608#1" />
  </person>
  <person id="ped_40" depart="951.99" type="adult">
    <walk from="-381458583#2" to="-381458608#1" />
  </person>
  <person id="ped_41" depart="956.85" type="adult">
    <walk from="-381458583#2" to="-381458608#1" />
  </person>
  <person id="ped_42" depart="961.95" type="adult">
    <walk from="-381458583#2" to="-381458608#1" />
  </person>
  <person id="ped_43" depart="1003.22" type="elderly">
    <walk from="-381458583#2" to="-381458608#1" />
  </person>
  <person id="ped_44" depart="1014.77" type="adult">
    <walk from="-381458583#2" to="-381458608#1" />
  </person>
  <person id="ped_45" depart="1017.68" type="adult">
    <walk from="-381458583#2" to="-381458608#1" />
  </person>
  <person id="ped_46" depart="1030.12" type="adult">
    <walk from="-381458583#2" to="-381458608#1" />
  </person>
  <person id="ped_47" depart="1048.40" type="adult">
    <walk from="-381458583#2" to="-381458608#1" />
  </person>
  <person id="ped_48" depart="1056.16" type="elderly">
    <walk from="-381458583#2" to="-381458608#1" />
  </person>
  <person id="ped_49" depart="1093.68" type="adult">
    <walk from="-381458583#2" to="-381458608#1" />
  </person>
  <person id="ped_50" depart="1096.50" type="adult">
    <walk from="-381458583#2" to="-381458608#1" />
  </person>
  <person id="ped_51" depart="1096.63" type="adult">
    <walk from="-381458583#2" to="-381458608#1" />
  </person>
  <person id="ped_52" depart="1099.23" type="adult">
    <walk from="-381458583#2" to="-381458608#1" />
  </person>
  <person id="ped_53" depart="1099.55" type="elderly">
    <walk from="-381458583#2" to="-381458608#1" />
  </person>
  <person id="ped_54" depart="1114.17" type="elderly">
    <walk from="-381458583#2" to="-381458608#1" />
  </person>
  <person id="ped_55" depart="1123.87" type="adult">
    <walk from="-381458583#2" to="-381458608#1" />
  </person>
  <person id="ped_56" depart="1140.43" type="adult">
    <walk from="-381458583#2" to="-381458608#1" />
  </person>
  <person id="ped_57" depart="1205.21" type="adult">
    <walk from="-381458583#2" to="-381458608#1" />
  </person>
  <person id="ped_58" depart="1255.08" type="elderly">
    <walk from="-381458583#2" to="-381458608#1" />
  </person>
  <person id="ped_59" depart="1258.33" type="adult">
    <walk from="-381458583#2" to="-381458608#1" />
  </person>
  <person id="ped_60" depart="1310.60" type="adult">
    <walk from="-381458583#2" to="-381458608#1" />
  </person>
  <person id="ped_61" depart="1374.48" type="adult">
    <walk from="-381458583#2" to="-381458608#1" />
  </person>
  <person id="ped_62" depart="1396.47" type="adult">
    <walk from="-381458583#2" to="-381458608#1" />
  </person>
  <person id="ped_63" depart="1399.65" type="elderly">
    <walk from="-381458583#2" to="-381458608#1" />
  </person>
  <person id="ped_64" depart="1417.57" type="adult">
    <walk from="-381458583#2" to="-381458608#1" />
  </person>
  <person id="ped_65" depart="1446.62" type="elderly">
    <walk from="-381458583#2" to="-381458608#1" />
  </person>
  <person id="ped_66" depart="1511.82" type="elderly">
    <walk from="-381458583#2" to="-381458608#1" />
  </person>
  <person id="ped_67" depart="1527.36" type="adult">
    <walk from="-381458583#2" to="-381458608#1" />
  </person>
  <person id="ped_68" depart="1545.01" type="adult">
    <walk from="-381458583#2" to="-381458608#1" />
  </person>
  <person id="ped_69" depart="1546.65" type="adult">
    <walk from="-381458583#2" to="-381458608#1" />
  </person>
  <person id="ped_70" depart="1547.15" type="adult">
    <walk from="-381458583#2" to="-381458608#1" />
  </person>
  <person id="ped_71" depart="1552.53" type="adult">
    <walk from="-381458583#2" to="-381458608#1" />
  </person>
  <person id="ped_72" depart="1583.32" type="adult">
    <walk from="-381458583#2" to="-381458608#1" />
  </person>
  <person id="ped_73" depart="1613.21" type="elderly">
    <walk from="-381458583#2" to="-381458608#1" />
  </person>
  <person id="ped_74" depart="1629.88" type="adult">
    <walk from="-381458583#2" to="-381458608#1" />
  </person>
  <person id="ped_75" depart="1632.01" type="adult">
    <walk from="-381458583#2" to="-381458608#1" />
  </person>
  <person id="ped_76" depart="1649.28" type="adult">
    <walk from="-381458583#2" to="-381458608#1" />
  </person>
  <person id="ped_77" depart="1691.79" type="adult">
    <walk from="-381458583#2" to="-381458608#1" />
  </person>
  <person id="ped_78" depart="1707.39" type="adult">
    <walk from="-381458583#2" to="-381458608#1" />
  </person>
  <person id="ped_79" depart="1734.91" type="adult">
    <walk from="-381458583#2" to="-381458608#1" />
  </person>
  <person id="ped_80" depart="1745.75" type="adult">
    <walk from="-381458583#2" to="-381458608#1" />
  </person>
  <person id="ped_81" depart="1760.83" type="adult">
    <walk from="-381458583#2" to="-381458608#1" />
  </person>
  <person id="ped_82" depart="1778.59" type="adult">
    <walk from="-381458583#2" to="-381458608#1" />
  </person>
  <person id="ped_83" depart="1813.35" type="adult">
    <walk from="-381458583#2" to="-381458608#1" />
  </person>
  <person id="ped_84" depart="1822.05" type="adult">
    <walk from="-381458583#2" to="-381458608#1" />
  </person>
  <person id="ped_85" depart="1829.35" type="adult">
    <walk from="-381458583#2" to="-381458608#1" />
  </person>
  <person id="ped_86" depart="1842.70" type="adult">
    <walk from="-381458583#2" to="-381458608#1" />
  </person>
  <person id="ped_87" depart="1859.21" type="elderly">
    <walk from="-381458583#2" to="-381458608#1" />
  </person>
  <person id="ped_88" depart="1859.33" type="adult">
    <walk from="-381458583#2" to="-381458608#1" />
  </person>
  <person id="ped_89" depart="1881.39" type="adult">
    <walk from="-381458583#2" to="-381458608#1" />
  </person>
  <person id="ped_90" depart="1914.56" type="adult">
    <walk from="-381458583#2" to="-381458608#1" />
  </person>
  <person id="ped_91" depart="1939.39" type="adult">
    <walk from="-381458583#2" to="-381458608#1" />
  </person>
  <person id="ped_92" depart="1948.50" type="elderly">
    <walk from="-381458583#2" to="-381458608#1" />
  </person>
  <person id="ped_93" depart="1978.40" type="adult">
    <walk from="-381458583#2" to="-381458608#1" />
  </person>
  <person id="ped_94" depart="1981.30" type="adult">
    <walk from="-381458583#2" to="-381458608#1" />
  </person>
  <person id="ped_95" depart="1981.62" type="elderly">
    <walk from="-381458583#2" to="-381458608#1" />
  </person>
  <person id="ped_96" depart="1997.60" type="elderly">
    <walk from="-381458583#2" to="-381458608#1" />
  </person>
  <person id="ped_97" depart="2005.54" type="adult">
    <walk from="-381458583#2" to="-381458608#1" />
  </person>
  <person id="ped_98" depart="2045.83" type="adult">
    <walk from="-381458583#2" to="-381458608#1" />
  </person>
  <person id="ped_99" depart="2048.84" type="adult">
    <walk from="-381458583#2" to="-381458608#1" />
  </person>
  <person id="ped_100" depart="2063.91" type="adult">
    <walk from="-381458583#2" to="-381458608#1" />
  </person>
  <person id="ped_101" depart="2138.35" type="adult">
    <walk from="-381458583#2" to="-381458608#1" />
  </person>
  <person id="ped_102" depart="2191.68" type="adult">
    <walk from="-381458583#2" to="-381458608#1" />
  </person>
  <person id="ped_103" depart="2237.22" type="adult">
    <walk from="-381458583#2" to="-381458608#1" />
  </person>
  <person id="ped_104" depart="2250.27" type="adult">
    <walk from="-381458583#2" to="-381458608#1" />
  </person>
  <person id="ped_105" depart="2281.59" type="adult">
    <walk from="-381458583#2" to="-381458608#1" />
  </person>
  <person id="ped_106" depart="2307.48" type="adult">
    <walk from="-381458583#2" to="-381458608#1" />
  </person>
  <person id="ped_107" depart="2308.25" type="elderly">
    <walk from="-381458583#2" to="-381458608#1" />
  </person>
  <person id="ped_108" depart="2347.28" type="adult">
    <walk from="-381458583#2" to="-381458608#1" />
  </person>
  <person id="ped_109" depart="2348.36" type="adult">
    <walk from="-381458583#2" to="-381458608#1" />
  </person>
  <person id="ped_110" depart="2361.60" type="adult">
    <walk from="-381458583#2" to="-381458608#1" />
  </person>
  <person id="ped_111" depart="2402.49" type="elderly">
    <walk from="-381458583#2" to="-381458608#1" />
  </person>
  <person id="ped_112" depart="2427.85" type="adult">
    <walk from="-381458583#2" to="-381458608#1" />
  </person>
  <person id="ped_113" depart="2434.05" type="adult">
    <walk from="-381458583#2" to="-381458608#1" />
  </person>
  <person id="ped_114" depart="2473.21" type="adult">
    <walk from="-381458583#2" to="-381458608#1" />
  </person>
  <person id="ped_115" depart="2510.62" type="adult">
    <walk from="-381458583#2" to="-381458608#1" />
  </person>
  <person id="ped_116" depart="2512.50" type="elderly">
    <walk from="-381458583#2" to="-381458608#1" />
  </person>
  <person id="ped_117" depart="2526.29" type="adult">
    <walk from="-381458583#2" to="-381458608#1" />
  </person>
  <person id="ped_118" depart="2537.07" type="adult">
    <walk from="-381458583#2" to="-381458608#1" />
  </person>
  <person id="ped_119" depart="2544.14" type="elderly">
    <walk from="-381458583#2" to="-381458608#1" />
  </person>
  <person id="ped_120" depart="2550.05" type="adult">
    <walk from="-381458583#2" to="-381458608#1" />
  </person>
  <person id="ped_121" depart="2609.29" type="adult">
    <walk from="-381458583#2" to="-381458608#1" />
  </person>
  <person id="ped_122" depart="2623.33" type="adult">
    <walk from="-381458583#2" to="-381458608#1" />
  </person>
  <person id="ped_123" depart="2629.85" type="adult">
    <walk from="-381458583#2" to="-381458608#1" />
  </person>
  <person id="ped_124" depart="2644.94" type="adult">
    <walk from="-381458583#2" to="-381458608#1" />
  </person>
  <person id="ped_125" depart="2667.56" type="adult">
    <walk from="-381458583#2" to="-381458608#1" />
  </person>
  <person id="ped_126" depart="2670.74" type="adult">
    <walk from="-381458583#2" to="-381458608#1" />
  </person>
  <person id="ped_127" depart="2673.16" type="adult">
    <walk from="-381458583#2" to="-381458608#1" />
  </person>
  <person id="ped_128" depart="2730.10" type="adult">
    <walk from="-381458583#2" to="-381458608#1" />
  </person>
  <person id="ped_129" depart="2737.55" type="adult">
    <walk from="-381458583#2" to="-381458608#1" />
  </person>
  <person id="ped_130" depart="2779.48" type="adult">
    <walk from="-381458583#2" to="-381458608#1" />
  </person>
  <person id="ped_131" depart="2816.38" type="elderly">
    <walk from="-381458583#2" to="-381458608#1" />
  </person>
  <person id="ped_132" depart="2865.69" type="adult">
    <walk from="-381458583#2" to="-381458608#1" />
  </person>
  <person id="ped_133" depart="2865.82" type="adult">
    <walk from="-381458583#2" to="-381458608#1" />
  </person>
  <person id="ped_134" depart="2876.38" type="adult">
    <walk from="-381458583#2" to="-381458608#1" />
  </person>
  <person id="ped_135" depart="2984.33" type="adult">
    <walk from="-381458583#2" to="-381458608#1" />
  </person>
  <person id="ped_136" depart="3001.45" type="adult">
    <walk from="-381458583#2" to="-381458608#1" />
  </person>
  <person id="ped_137" depart="3021.77" type="adult">
    <walk from="-381458583#2" to="-381458608#1" />
  </person>
  <person id="ped_138" depart="3045.10" type="adult">
    <walk from="-381458583#2" to="-381458608#1" />
  </person>
  <person id="ped_139" depart="3079.05" type="adult">
    <walk from="-381458583#2" to="-381458608#1" />
  </person>
  <person id="ped_140" depart="3114.40" type="elderly">
    <walk from="-381458583#2" to="-381458608#1" />
  </person>
  <person id="ped_141" depart="3117.65" type="adult">
    <walk from="-381458583#2" to="-381458608#1" />
  </person>
  <person id="ped_142" depart="3124.63" type="adult">
    <walk from="-381458583#2" to="-381458608#1" />
  </person>
  <person id="ped_143" depart="3135.55" type="elderly">
    <walk from="-381458583#2" to="-381458608#1" />
  </person>
  <person id="ped_144" depart="3140.41" type="elderly">
    <walk from="-381458583#2" to="-381458608#1" />
  </person>
  <person id="ped_145" depart="3149.08" type="elderly">
    <walk from="-381458583#2" to="-381458608#1" />
  </person>
  <person id="ped_146" depart="3163.82" type="adult">
    <walk from="-381458583#2" to="-381458608#1" />
  </person>
  <person id="ped_147" depart="3177.31" type="elderly">
    <walk from="-381458583#2" to="-381458608#1" />
  </person>
  <person id="ped_148" depart="3319.94" type="adult">
    <walk from="-381458583#2" to="-381458608#1" />
  </person>
  <person id="ped_149" depart="3338.93" type="adult">
    <walk from="-381458583#2" to="-381458608#1" />
  </person>
  <person id="ped_150" depart="3339.21" type="adult">
    <walk from="-381458583#2" to="-381458608#1" />
  </person>
  <person id="ped_151" depart="3382.29" type="adult">
    <walk from="-381458583#2" to="-381458608#1" />
  </person>
  <person id="ped_152" depart="3435.51" type="adult">
    <walk from="-381458583#2" to="-381458608#1" />
  </person>
  <person id="ped_153" depart="3475.88" type="adult">
    <walk from="-381458583#2" to="-381458608#1" />
  </person>
  <person id="ped_154" depart="3495.70" type="adult">
    <walk from="-381458583#2" to="-381458608#1" />
  </person>
  <person id="ped_155" depart="3504.69" type="adult">
    <walk from="-381458583#2" to="-381458608#1" />
  </person>
  <person id="ped_156" depart="3538.46" type="adult">
    <walk from="-381458583#2" to="-381458608#1" />
  </person>
  <person id="ped_157" depart="3607.77" type="adult">
    <walk from="-381458583#2" to="-381458608#1" />
  </person>
  <person id="ped_158" depart="3611.04" type="adult">
    <walk from="-381458583#2" to="-381458608#1" />
  </person>
  <person id="ped_159" depart="3631.57" type="adult">
    <walk from="-381458583#2" to="-381458608#1" />
  </person>
  <person id="ped_160" depart="3637.39" type="adult">
    <walk from="-381458583#2" to="-381458608#1" />
  </person>
  <person id="ped_161" depart="3681.52" type="adult">
    <walk from="-381458583#2" to="-381458608#1" />
  </person>
  <person id="ped_162" depart="3704.78" type="adult">
    <walk from="-381458583#2" to="-381458608#1" />
  </person>
  <person id="ped_163" depart="3709.01" type="elderly">
    <walk from="-381458583#2" to="-381458608#1" />
  </person>
  <person id="ped_164" depart="3723.29" type="adult">
    <walk from="-381458583#2" to="-381458608#1" />
  </person>
  <person id="ped_165" depart="3812.44" type="adult">
    <walk from="-381458583#2" to="-381458608#1" />
  </person>
  <person id="ped_166" depart="3816.75" type="elderly">
    <walk from="-381458583#2" to="-381458608#1" />
  </person>
  <person id="ped_167" depart="3818.63" type="adult">
    <walk from="-381458583#2" to="-381458608#1" />
  </person>
  <person id="ped_168" depart="3822.69" type="adult">
    <walk from="-381458583#2" to="-381458608#1" />
  </person>
  <person id="ped_169" depart="3827.23" type="adult">
    <walk from="-381458583#2" to="-381458608#1" />
  </person>
  <person id="ped_170" depart="3874.32" type="elderly">
    <walk from="-381458583#2" to="-381458608#1" />
  </person>
  <person id="ped_171" depart="3928.88" type="adult">
    <walk from="-381458583#2" to="-381458608#1" />
  </person>
  <person id="ped_172" depart="3933.85" type="adult">
    <walk from="-381458583#2" to="-381458608#1" />
  </person>
  <person id="ped_173" depart="3941.14" type="elderly">
    <walk from="-381458583#2" to="-381458608#1" />
  </person>
  <person id="ped_174" depart="3949.55" type="elderly">
    <walk from="-381458583#2" to="-381458608#1" />
  </person>
  <person id="ped_175" depart="3971.53" type="adult">
    <walk from="-381458583#2" to="-381458608#1" />
  </person>
  <person id="ped_176" depart="3972.80" type="adult">
    <walk from="-381458583#2" to="-381458608#1" />
  </person>
  <person id="ped_177" depart="3976.89" type="adult">
    <walk from="-381458583#2" to="-381458608#1" />
  </person>
  <person id="ped_178" depart="3998.41" type="elderly">
    <walk from="-381458583#2" to="-381458608#1" />
  </person>
  <person id="ped_179" depart="4009.74" type="elderly">
    <walk from="-381458583#2" to="-381458608#1" />
  </person>
  <person id="ped_180" depart="4030.19" type="adult">
    <walk from="-381458583#2" to="-381458608#1" />
  </person>
  <person id="ped_181" depart="4055.05" type="adult">
    <walk from="-381458583#2" to="-381458608#1" />
  </person>
  <person id="ped_182" depart="4077.32" type="adult">
    <walk from="-381458583#2" to="-381458608#1" />
  </person>
  <person id="ped_183" depart="4088.99" type="adult">
    <walk from="-381458583#2" to="-381458608#1" />
  </person>
  <person id="ped_184" depart="4115.94" type="adult">
    <walk from="-381458583#2" to="-381458608#1" />
  </person>
  <person id="ped_185" depart="4122.28" type="adult">
    <walk from="-381458583#2" to="-381458608#1" />
  </person>
  <person id="ped_186" depart="4123.52" type="adult">
    <walk from="-381458583#2" to="-381458608#1" />
  </person>
  <person id="ped_187" depart="4175.64" type="adult">
    <walk from="-381458583#2" to="-381458608#1" />
  </person>
  <person id="ped_188" depart="4188.73" type="adult">
    <walk from="-381458583#2" to="-381458608#1" />
  </person>
  <person id="ped_189" depart="4197.10" type="adult">
    <walk from="-381458583#2" to="-381458608#1" />
  </person>
  <person id="ped_190" depart="4201.31" type="adult">
    <walk from="-381458583#2" to="-381458608#1" />
  </person>
  <person id="ped_191" depart="4202.18" type="adult">
    <walk from="-381458583#2" to="-381458608#1" />
  </person>
  <person id="ped_192" depart="4213.42" type="adult">
    <walk from="-381458583#2" to="-381458608#1" />
  </person>
  <person id="ped_193" depart="4220.49" type="elderly">
    <walk from="-381458583#2" to="-381458608#1" />
  </person>
  <person id="ped_194" depart="4272.47" type="elderly">
    <walk from="-381458583#2" to="-381458608#1" />
  </person>
  <person id="ped_195" depart="4321.76" type="adult">
    <walk from="-381458583#2" to="-381458608#1" />
  </person>
  <person id="ped_196" depart="4331.57" type="adult">
    <walk from="-381458583#2" to="-381458608#1" />
  </person>
  <person id="ped_197" depart="4353.23" type="elderly">
    <walk from="-381458583#2" to="-381458608#1" />
  </person>
  <person id="ped_198" depart="4365.81" type="elderly">
    <walk from="-381458583#2" to="-381458608#1" />
  </person>
  <person id="ped_199" depart="4372.77" type="adult">
    <walk from="-381458583#2" to="-381458608#1" />
  </person>
  <person id="ped_200" depart="4373.27" type="adult">
    <walk from="-381458583#2" to="-381458608#1" />
  </person>
  <person id="ped_201" depart="4377.16" type="adult">
    <walk from="-381458583#2" to="-381458608#1" />
  </person>
  <person id="ped_202" depart="4388.79" type="adult">
    <walk from="-381458583#2" to="-381458608#1" />
  </person>
  <person id="ped_203" depart="4415.80" type="adult">
    <walk from="-381458583#2" to="-381458608#1" />
  </person>
  <person id="ped_204" depart="4436.05" type="adult">
    <walk from="-381458583#2" to="-381458608#1" />
  </person>
  <person id="ped_205" depart="4466.76" type="adult">
    <walk from="-381458583#2" to="-381458608#1" />
  </person>
  <person id="ped_206" depart="4480.57" type="adult">
    <walk from="-381458583#2" to="-381458608#1" />
  </person>
  <person id="ped_207" depart="4512.07" type="adult">
    <walk from="-381458583#2" to="-381458608#1" />
  </person>
  <person id="ped_208" depart="4578.61" type="adult">
    <walk from="-381458583#2" to="-381458608#1" />
  </person>
  <person id="ped_209" depart="4599.28" type="adult">
    <walk from="-381458583#2" to="-381458608#1" />
  </person>
  <person id="ped_210" depart="4602.47" type="adult">
    <walk from="-381458583#2" to="-381458608#1" />
  </person>
  <person id="ped_211" depart="4622.01" type="adult">
    <walk from="-381458583#2" to="-381458608#1" />
  </person>
  <person id="ped_212" depart="4653.90" type="adult">
    <walk from="-381458583#2" to="-381458608#1" />
  </person>
  <person id="ped_213" depart="4688.83" type="adult">
    <walk from="-381458583#2" to="-381458608#1" />
  </person>
  <person id="ped_214" depart="4692.14" type="adult">
    <walk from="-381458583#2" to="-381458608#1" />
  </person>
  <person id="ped_215" depart="4697.50" type="adult">
    <walk from="-381458583#2" to="-381458608#1" />
  </person>
  <person id="ped_216" depart="4719.59" type="adult">
    <walk from="-381458583#2" to="-381458608#1" />
  </person>
  <person id="ped_217" depart="4722.33" type="elderly">
    <walk from="-381458583#2" to="-381458608#1" />
  </person>
  <person id="ped_218" depart="4839.99" type="adult">
    <walk from="-381458583#2" to="-381458608#1" />
  </person>
  <person id="ped_219" depart="4847.77" type="adult">
    <walk from="-381458583#2" to="-381458608#1" />
  </person>
  <person id="ped_220" depart="4849.09" type="adult">
    <walk from="-381458583#2" to="-381458608#1" />
  </person>
  <person id="ped_221" depart="4942.91" type="adult">
    <walk from="-381458583#2" to="-381458608#1" />
  </person>
  <person id="ped_222" depart="4972.21" type="adult">
    <walk from="-381458583#2" to="-381458608#1" />
  </person>
  <person id="ped_223" depart="4984.61" type="elderly">
    <walk from="-381458583#2" to="-381458608#1" />
  </person>
  <person id="ped_224" depart="5006.26" type="adult">
    <walk from="-381458583#2" to="-381458608#1" />
  </person>
  <person id="ped_225" depart="5062.51" type="adult">
    <walk from="-381458583#2" to="-381458608#1" />
  </person>
  <person id="ped_226" depart="5073.92" type="adult">
    <walk from="-381458583#2" to="-381458608#1" />
  </person>
  <person id="ped_227" depart="5084.29" type="adult">
    <walk from="-381458583#2" to="-381458608#1" />
  </person>
  <person id="ped_228" depart="5132.37" type="adult">
    <walk from="-381458583#2" to="-381458608#1" />
  </person>
  <person id="ped_229" depart="5141.94" type="adult">
    <walk from="-381458583#2" to="-381458608#1" />
  </person>
  <person id="ped_230" depart="5145.82" type="adult">
    <walk from="-381458583#2" to="-381458608#1" />
  </person>
  <person id="ped_231" depart="5168.71" type="elderly">
    <walk from="-381458583#2" to="-381458608#1" />
  </person>
  <person id="ped_232" depart="5209.47" type="adult">
    <walk from="-381458583#2" to="-381458608#1" />
  </person>
  <person id="ped_233" depart="5229.09" type="adult">
    <walk from="-381458583#2" to="-381458608#1" />
  </person>
  <person id="ped_234" depart="5251.30" type="adult">
    <walk from="-381458583#2" to="-381458608#1" />
  </person>
  <person id="ped_235" depart="5268.94" type="adult">
    <walk from="-381458583#2" to="-381458608#1" />
  </person>
  <person id="ped_236" depart="5285.03" type="adult">
    <walk from="-381458583#2" to="-381458608#1" />
  </person>
  <person id="ped_237" depart="5370.14" type="adult">
    <walk from="-381458583#2" to="-381458608#1" />
  </person>
  <person id="ped_238" depart="5384.49" type="adult">
    <walk from="-381458583#2" to="-381458608#1" />
  </person>
  <person id="ped_239" depart="5427.81" type="adult">
    <walk from="-381458583#2" to="-381458608#1" />
  </person>
  <person id="ped_240" depart="5462.83" type="adult">
    <walk from="-381458583#2" to="-381458608#1" />
  </person>
  <person id="ped_241" depart="5466.65" type="adult">
    <walk from="-381458583#2" to="-381458608#1" />
  </person>
  <person id="ped_242" depart="5507.30" type="elderly">
    <walk from="-381458583#2" to="-381458608#1" />
  </person>
  <person id="ped_243" depart="5528.64" type="elderly">
    <walk from="-381458583#2" to="-381458608#1" />
  </person>
  <person id="ped_244" depart="5533.53" type="adult">
    <walk from="-381458583#2" to="-381458608#1" />
  </person>
  <person id="ped_245" depart="5536.92" type="adult">
    <walk from="-381458583#2" to="-381458608#1" />
  </person>
  <person id="ped_246" depart="5546.24" type="adult">
    <walk from="-381458583#2" to="-381458608#1" />
  </person>
  <person id="ped_247" depart="5568.23" type="adult">
    <walk from="-381458583#2" to="-381458608#1" />
  </person>
  <person id="ped_248" depart="5632.96" type="adult">
    <walk from="-381458583#2" to="-381458608#1" />
  </person>
  <person id="ped_249" depart="5633.19" type="adult">
    <walk from="-381458583#2" to="-381458608#1" />
  </person>
  <person id="ped_250" depart="5652.78" type="adult">
    <walk from="-381458583#2" to="-381458608#1" />
  </person>
  <person id="ped_251" depart="5686.56" type="adult">
    <walk from="-381458583#2" to="-381458608#1" />
  </person>
  <person id="ped_252" depart="5696.67" type="adult">
    <walk from="-381458583#2" to="-381458608#1" />
  </person>
  <person id="ped_253" depart="5720.66" type="adult">
    <walk from="-381458583#2" to="-381458608#1" />
  </person>
  <person id="ped_254" depart="5726.50" type="adult">