<?xml version='1.0' encoding='utf-8'?>
<routes>
  <vType id="adult" vClass="pedestrian" minGap="0.25" width="0.5" length="0.25" maxSpeed="1.5" speedDev="0.1" />
  <vType id="elderly" vClass="pedestrian" minGap="0.25" width="0.5" length="0.25" maxSpeed="1.13" speedDev="0.15" color="255,0,0" />
  <person id="ped_0" depart="38.98" type="adult">
    <walk from="-381458583#2" to="-381458608#1" />
  </person>
  <person id="ped_1" depart="45.41" type="adult">
    <walk from="-381458583#2" to="-381458608#1" />
  </person>
  <person id="ped_2" depart="47.45" type="adult">
    <walk from="-381458583#2" to="-381458608#1" />
  </person>
  <person id="ped_3" depart="75.75" type="elderly">
    <walk from="-381458583#2" to="-381458608#1" />
  </person>
  <person id="ped_4" depart="76.63" type="adult">
    <walk from="-381458583#2" to="-381458608#1" />
  </person>
  <person id="ped_5" depart="86.33" type="adult">
    <walk from="-381458583#2" to="-381458608#1" />
  </person>
  <person id="ped_6" depart="86.43" type="adult">
    <walk from="-381458583#2" to="-381458608#1" />
  </person>
  <person id="ped_7" depart="93.23" type="adult">
    <walk from="-381458583#2" to="-381458608#1" />
  </person>
  <person id="ped_8" depart="101.86" type="adult">
    <walk from="-381458583#2" to="-381458608#1" />
  </person>
  <person id="ped_9" depart="102.01" type="adult">
    <walk from="-381458583#2" to="-381458608#1" />
  </person>
  <person id="ped_10" depart="102.81" type="adult">
    <walk from="-381458583#2" to="-381458608#1" />
  </person>
  <person id="ped_11" depart="118.25" type="adult">
    <walk from="-381458583#2" to="-381458608#1" />
  </person>
  <person id="ped_12" depart="118.92" type="adult">
    <walk from="-381458583#2" to="-381458608#1" />
  </person>
  <person id="ped_13" depart="123.95" type="adult">
    <walk from="-381458583#2" to="-381458608#1" />
  </person>
  <person id="ped_14" depart="134.82" type="adult">
    <walk from="-381458583#2" to="-381458608#1" />
  </person>
  <person id="ped_15" depart="139.39" type="adult">
    <walk from="-381458583#2" to="-381458608#1" />
  </person>
  <person id="ped_16" depart="142.71" type="adult">
    <walk from="-381458583#2" to="-381458608#1" />
  </person>
  <person id="ped_17" depart="146.48" type="adult">
    <walk from="-381458583#2" to="-381458608#1" />
  </person>
  <person id="ped_18" depart="147.03" type="adult">
    <walk from="-381458583#2" to="-381458608#1" />
  </person>
  <person id="ped_19" depart="180.90" type="adult">
    <walk from="-381458583#2" to="-381458608#1" />
  </person>
  <person id="ped_20" depart="182.73" type="adult">
    <walk from="-381458583#2" to="-381458608#1" />
  </person>
  <person id="ped_21" depart="189.35" type="adult">
    <walk from="-381458583#2" to="-381458608#1" />
  </person>
  <person id="ped_22" depart="190.54" type="adult">
    <walk from="-381458583#2" to="-381458608#1" />
  </person>
  <person id="ped_23" depart="198.73" type="adult">
    <walk from="-381458583#2" to="-381458608#1" />
  </person>
  <person id="ped_24" depart="200.05" type="elderly">
    <walk from="-381458583#2" to="-381458608#1" />
  </person>
  <person id="ped_25" depart="212.24" type="elderly">
    <walk from="-381458583#2" to="-381458608#1" />
  </person>
  <person id="ped_26" depart="219.93" type="adult">
    <walk from="-381458583#2" to="-381458608#1" />
  </person>
  <person id="ped_27" depart="246.60" type="adult">
    <walk from="-381458583#2" to="-381458608#1" />
  </person>
  <person id="ped_28" depart="263.93" type="adult">
    <walk from="-381458583#2" to="-381458608#1" />
  </person>
  <person id="ped_29" depart="270.08" type="adult">
    <walk from="-381458583#2" to="-381458608#1" />
  </person>
  <person id="ped_30" depart="283.27" type="adult">
    <walk from="-381458583#2" to="-381458608#1" />
  </person>
  <person id="ped_31" depart="303.41" type="adult">
    <walk from="-381458583#2" to="-381458608#1" />
  </person>
  <person id="ped_32" depart="309.96" type="adult">
    <walk from="-381458583#2" to="-381458608#1" />
  </person>
  <person id="ped_33" depart="319.49" type="adult">
    <walk from="-381458583#2" to="-381458608#1" />
  </person>
  <person id="ped_34" depart="328.30" type="elderly">
    <walk from="-381458583#2" to="-381458608#1" />
  </person>
  <person id="ped_35" depart="333.57" type="adult">
    <walk from="-381458583#2" to="-381458608#1" />
  </person>
  <person id="ped_36" depart="336.65" type="adult">
    <walk from="-381458583#2" to="-381458608#1" />
  </person>
  <person id="ped_37" depart="338.10" type="elderly">
    <walk from="-381458583#2" to="-381458608#1" />
  </person>
  <person id="ped_38" depart="341.58" type="elderly">
    <walk from="-381458583#2" to="-381458608#1" />
  </person>
  <person id="ped_39" depart="356.08" type="adult">
    <walk from="-381458583#2" to="-381458608#1" />
  </person>
  <person id="ped_40" depart="369.30" type="adult">
    <walk from="-381458583#2" to="-381458608#1" />
  </person>
  <person id="ped_41" depart="378.23" type="adult">
    <walk from="-381458583#2" to="-381458608#1" />
  </person>
  <person id="ped_42" depart="378.92" type="adult">
    <walk from="-381458583#2" to="-381458608#1" />
  </person>
  <person id="ped_43" depart="380.37" type="adult">
    <walk from="-381458583#2" to="-381458608#1" />
  </person>
  <person id="ped_44" depart="382.44" type="adult">
    <walk from="-381458583#2" to="-381458608#1" />
  </person>
  <person id="ped_45" depart="383.60" type="adult">
    <walk from="-381458583#2" to="-381458608#1" />
  </person>
  <person id="ped_46" depart="402.95" type="adult">
    <walk from="-381458583#2" to="-381458608#1" />
  </person>
  <person id="ped_47" depart="432.68" type="elderly">
    <walk from="-381458583#2" to="-381458608#1" />
  </person>
  <person id="ped_48" depart="450.79" type="adult">
    <walk from="-381458583#2" to="-381458608#1" />
  </person>
  <person id="ped_49" depart="461.99" type="elderly">
    <walk from="-381458583#2" to="-381458608#1" />
  </person>
  <person id="ped_50" depart="467.82" type="adult">
    <walk from="-381458583#2" to="-381458608#1" />
  </person>
  <person id="ped_51" depart="470.67" type="adult">
    <walk from="-381458583#2" to="-381458608#1" />
  </person>
  <person id="ped_52" depart="472.03" type="adult">
    <walk from="-381458583#2" to="-381458608#1" />
  </person>
  <person id="ped_53" depart="486.18" type="adult">
    <walk from="-381458583#2" to="-381458608#1" />
  </person>
  <person id="ped_54" depart="500.91" type="adult">
    <walk from="-381458583#2" to="-381458608#1" />
  </person>
  <person id="ped_55" depart="513.27" type="adult">
    <walk from="-381458583#2" to="-381458608#1" />
  </person>
  <person id="ped_56" depart="545.42" type="adult">
    <walk from="-381458583#2" to="-381458608#1" />
  </person>
  <person id="ped_57" depart="557.88" type="adult">
    <walk from="-381458583#2" to="-381458608#1" />
  </person>
  <person id="ped_58" depart="578.33" type="adult">
    <walk from="-381458583#2" to="-381458608#1" />
  </person>
  <person id="ped_59" depart="599.58" type="adult">
    <walk from="-381458583#2" to="-381458608#1" />
  </person>
  <person id="ped_60" depart="601.66" type="adult">
    <walk from="-381458583#2" to="-381458608#1" />
  </person>
  <person id="ped_61" depart="611.99" type="adult">
    <walk from="-381458583#2" to="-381458608#1" />
  </person>
  <person id="ped_62" depart="612.14" type="adult">
    <walk from="-381458583#2" to="-381458608#1" />
  </person>
  <person id="ped_63" depart="640.66" type="adult">
    <walk from="-381458583#2" to="-381458608#1" />
  </person>
  <person id="ped_64" depart="647.98" type="elderly">
    <walk from="-381458583#2" to="-381458608#1" />
  </person>
  <person id="ped_65" depart="649.97" type="elderly">
    <walk from="-381458583#2" to="-381458608#1" />
  </person>
  <person id="ped_66" depart="660.96" type="adult">
    <walk from="-381458583#2" to="-381458608#1" />
  </person>
  <person id="ped_67" depart="663.37" type="adult">
    <walk from="-381458583#2" to="-381458608#1" />
  </person>
  <person id="ped_68" depart="671.88" type="adult">
    <walk from="-381458583#2" to="-381458608#1" />
  </person>
  <person id="ped_69" depart="673.37" type="adult">
    <walk from="-381458583#2" to="-381458608#1" />
  </person>
  <person id="ped_70" depart="677.52" type="adult">
    <walk from="-381458583#2" to="-381458608#1" />
  </person>
  <person id="ped_71" depart="677.64" type="adult">
    <walk from="-381458583#2" to="-381458608#1" />
  </person>
  <person id="ped_72" depart="684.24" type="adult">
    <walk from="-381458583#2" to="-381458608#1" />
  </person>
  <person id="ped_73" depart="689.78" type="adult">
    <walk from="-381458583#2" to="-381458608#1" />
  </person>
  <person id="ped_74" depart="690.09" type="adult">
    <walk from="-381458583#2" to="-381458608#1" />
  </person>
  <person id="ped_75" depart="695.85" type="adult">
    <walk from="-381458583#2" to="-381458608#1" />
  </person>
  <person id="ped_76" depart="726.68" type="adult">
    <walk from="-381458583#2" to="-381458608#1" />
  </person>
  <person id="ped_77" depart="728.38" type="adult">
    <walk from="-381458583#2" to="-381458608#1" />
  </person>
  <person id="ped_78" depart="729.15" type="adult">
    <walk from="-381458583#2" to="-381458608#1" />
  </person>
  <person id="ped_79" depart="740.87" type="adult">
    <walk from="-381458583#2" to="-381458608#1" />
  </person>
  <person id="ped_80" depart="761.46" type="adult">
    <walk from="-381458583#2" to="-381458608#1" />
  </person>
  <person id="ped_81" depart="771.59" type="adult">
    <walk from="-381458583#2" to="-381458608#1" />
  </person>
  <person id="ped_82" depart="828.99" type="adult">
    <walk from="-381458583#2" to="-381458608#1" />
  </person>
  <person id="ped_83" depart="844.20" type="adult">
    <walk from="-381458583#2" to="-381458608#1" />
  </person>
  <person id="ped_84" depart="850.67" type="adult">
    <walk from="-381458583#2" to="-381458608#1" />
  </person>
  <person id="ped_85" depart="876.20" type="adult">
    <walk from="-381458583#2" to="-381458608#1" />
  </person>
  <person id="ped_86" depart="877.94" type="adult">
    <walk from="-381458583#2" to="-381458608#1" />
  </person>
  <person id="ped_87" depart="904.35" type="adult">
    <walk from="-381458583#2" to="-381458608#1" />
  </person>
  <person id="ped_88" depart="910.47" type="adult">
    <walk from="-381458583#2" to="-381458608#1" />
  </person>
  <person id="ped_89" depart="915.56" type="adult">
    <walk from="-381458583#2" to="-381458608#1" />
  </person>
  <person id="ped_90" depart="923.84" type="adult">
    <walk from="-381458583#2" to="-381458608#1" />
  </person>
  <person id="ped_91" depart="927.01" type="elderly">
    <walk from="-381458583#2" to="-381458608#1" />
  </person>
  <person id="ped_92" depart="944.65" type="adult">
    <walk from="-381458583#2" to="-381458608#1" />
  </person>
  <person id="ped_93" depart="956.00" type="adult">
    <walk from="-381458583#2" to="-381458608#1" />
  </person>
  <person id="ped_94" depart="958.44" type="adult">
    <walk from="-381458583#2" to="-381458608#1" />
  </person>
  <person id="ped_95" depart="967.61" type="elderly">
    <walk from="-381458583#2" to="-381458608#1" />
  </person>
  <person id="ped_96" depart="974.64" type="adult">
    <walk from="-381458583#2" to="-381458608#1" />
  </person>
  <person id="ped_97" depart="984.11" type="adult">
    <walk from="-381458583#2" to="-381458608#1" />
  </person>
  <person id="ped_98" depart="985.86" type="adult">
    <walk from="-381458583#2" to="-381458608#1" />
  </person>
  <person id="ped_99" depart="987.82" type="adult">
    <walk from="-381458583#2" to="-381458608#1" />
  </person>
  <person id="ped_100" depart="992.90" type="elderly">
    <walk from="-381458583#2" to="-381458608#1" />
  </person>
  <person id="ped_101" depart="1022.26" type="elderly">
    <walk from="-381458583#2" to="-381458608#1" />
  </person>
  <person id="ped_102" depart="1023.61" type="adult">
    <walk from="-381458583#2" to="-381458608#1" />
  </person>
  <person id="ped_103" depart="1025.13" type="adult">
    <walk from="-381458583#2" to="-381458608#1" />
  </person>
  <person id="ped_104" depart="1042.05" type="adult">
    <walk from="-381458583#2" to="-381458608#1" />
  </person>
  <person id="ped_105" depart="1045.39" type="adult">
    <walk from="-381458583#2" to="-381458608#1" />
  </person>
  <person id="ped_106" depart="1047.52" type="adult">
    <walk from="-381458583#2" to="-381458608#1" />
  </person>
  <person id="ped_107" depart="1054.03" type="elderly">
    <walk from="-381458583#2" to="-381458608#1" />
  </person>
  <person id="ped_108" depart="1078.78" type="elderly">
    <walk from="-381458583#2" to="-381458608#1" />
  </person>
  <person id="ped_109" depart="1086.22" type="elderly">
    <walk from="-381458583#2" to="-381458608#1" />
  </person>
  <person id="ped_110" depart="1131.40" type="adult">
    <walk from="-381458583#2" to="-381458608#1" />
  </person>
  <person id="ped_111" depart="1136.78" type="adult">
    <walk from="-381458583#2" to="-381458608#1" />
  </person>
  <person id="ped_112" depart="1163.59" type="adult">
    <walk from="-381458583#2" to="-381458608#1" />
  </person>
  <person id="ped_113" depart="1200.37" type="adult">
    <walk from="-381458583#2" to="-381458608#1" />
  </person>
  <person id="ped_114" depart="1227.25" type="adult">
    <walk from="-381458583#2" to="-381458608#1" />
  </person>
  <person id="ped_115" depart="1229.83" type="elderly">
    <walk from="-381458583#2" to="-381458608#1" />
  </person>
  <person id="ped_116" depart="1232.94" type="adult">
    <walk from="-381458583#2" to="-381458608#1" />
  </person>
  <person id="ped_117" depart="1258.97" type="adult">
    <walk from="-381458583#2" to="-381458608#1" />
  </person>
  <person id="ped_118" depart="1281.24" type="elderly">
    <walk from="-381458583#2" to="-381458608#1" />
  </person>
  <person id="ped_119" depart="1296.84" type="adult">
    <walk from="-381458583#2" to="-381458608#1" />
  </person>
  <person id="ped_120" depart="1297.12" type="elderly">
    <walk from="-381458583#2" to="-381458608#1" />
  </person>
  <person id="ped_121" depart="1302.80" type="adult">
    <walk from="-381458583#2" to="-381458608#1" />
  </person>
  <person id="ped_122" depart="1319.90" type="adult">
    <walk from="-381458583#2" to="-381458608#1" />
  </person>
  <person id="ped_123" depart="1326.71" type="elderly">
    <walk from="-381458583#2" to="-381458608#1" />
  </person>
  <person id="ped_124" depart="1328.55" type="adult">
    <walk from="-381458583#2" to="-381458608#1" />
  </person>
  <person id="ped_125" depart="1333.98" type="adult">
    <walk from="-381458583#2" to="-381458608#1" />
  </person>
  <person id="ped_126" depart="1346.66" type="adult">
    <walk from="-381458583#2" to="-381458608#1" />
  </person>
  <person id="ped_127" depart="1357.25" type="adult">
    <walk from="-381458583#2" to="-381458608#1" />
  </person>
  <person id="ped_128" depart="1359.53" type="adult">
    <walk from="-381458583#2" to="-381458608#1" />
  </person>
  <person id="ped_129" depart="1387.42" type="adult">
    <walk from="-381458583#2" to="-381458608#1" />
  </person>
  <person id="ped_130" depart="1388.20" type="adult">
    <walk from="-381458583#2" to="-381458608#1" />
  </person>
  <person id="ped_131" depart="1388.61" type="elderly">
    <walk from="-381458583#2" to="-381458608#1" />
  </person>
  <person id="ped_132" depart="1397.87" type="adult">
    <walk from="-381458583#2" to="-381458608#1" />
  </person>
  <person id="ped_133" depart="1401.02" type="adult">
    <walk from="-381458583#2" to="-381458608#1" />
  </person>
  <person id="ped_134" depart="1401.89" type="adult">
    <walk from="-381458583#2" to="-381458608#1" />
  </person>
  <person id="ped_135" depart="1417.42" type="adult">
    <walk from="-381458583#2" to="-381458608#1" />
  </person>
  <person id="ped_136" depart="1426.52" type="adult">
    <walk from="-381458583#2" to="-381458608#1" />
  </person>
  <person id="ped_137" depart="1445.87" type="adult">
    <walk from="-381458583#2" to="-381458608#1" />
  </person>
  <person id="ped_138" depart="1462.32" type="adult">
    <walk from="-381458583#2" to="-381458608#1" />
  </person>
  <person id="ped_139" depart="1466.23" type="elderly">
    <walk from="-381458583#2" to="-381458608#1" />
  </person>
  <person id="ped_140" depart="1509.82" type="adult">
    <walk from="-381458583#2" to="-381458608#1" />
  </person>
  <person id="ped_141" depart="1528.03" type="adult">
    <walk from="-381458583#2" to="-381458608#1" />
  </person>
  <person id="ped_142" depart="1529.38" type="elderly">
    <walk from="-381458583#2" to="-381458608#1" />
  </person>
  <person id="ped_143" depart="1532.70" type="adult">
    <walk from="-381458583#2" to="-381458608#1" />
  </person>
  <person id="ped_144" depart="1556.80" type="elderly">
    <walk from="-381458583#2" to="-381458608#1" />
  </person>
  <person id="ped_145" depart="1557.22" type="adult">
    <walk from="-381458583#2" to="-381458608#1" />
  </person>
  <person id="ped_146" depart="1561.12" type="elderly">
    <walk from="-381458583#2" to="-381458608#1" />
  </person>
  <person id="ped_147" depart="1588.53" type="elderly">
    <walk from="-381458583#2" to="-381458608#1" />
  </person>
  <person id="ped_148" depart="1590.02" type="adult">
    <walk from="-381458583#2" to="-381458608#1" />
  </person>
  <person id="ped_149" depart="1596.53" type="adult">
    <walk from="-381458583#2" to="-381458608#1" />
  </person>
  <person id="ped_150" depart="1600.20" type="adult">
    <walk from="-381458583#2" to="-381458608#1" />
  </person>
  <person id="ped_151" depart="1603.47" type="adult">
    <walk from="-381458583#2" to="-381458608#1" />
  </person>
  <person id="ped_152" depart="1619.77" type="adult">
    <walk from="-381458583#2" to="-381458608#1" />
  </person>
  <person id="ped_153" depart="1623.25" type="elderly">
    <walk from="-381458583#2" to="-381458608#1" />
  </person>
  <person id="ped_154" depart="1638.00" type="adult">
    <walk from="-381458583#2" to="-381458608#1" />
  </person>
  <person id="ped_155" depart="1644.53" type="adult">
    <walk from="-381458583#2" to="-381458608#1" />
  </person>
  <person id="ped_156" depart="1656.17" type="elderly">
    <walk from="-381458583#2" to="-381458608#1" />
  </person>
  <person id="ped_157" depart="1661.89" type="adult">
    <walk from="-381458583#2" to="-381458608#1" />
  </person>
  <person id="ped_158" depart="1662.43" type="adult">
    <walk from="-381458583#2" to="-381458608#1" />
  </person>
  <person id="ped_159" depart="1664.62" type="adult">
    <walk from="-381458583#2" to="-381458608#1" />
  </person>
  <person id="ped_160" depart="1668.65" type="adult">
    <walk from="-381458583#2" to="-381458608#1" />
  </person>
  <person id="ped_161" depart="1671.74" type="elderly">
    <walk from="-381458583#2" to="-381458608#1" />
  </person>
  <person id="ped_162" depart="1673.57" type="adult">
    <walk from="-381458583#2" to="-381458608#1" />
  </person>
  <person id="ped_163" depart="1677.74" type="adult">
    <walk from="-381458583#2" to="-381458608#1" />
  </person>
  <person id="ped_164" depart="1688.86" type="elderly">
    <walk from="-381458583#2" to="-381458608#1" />
  </person>
  <person id="ped_165" depart="1693.94" type="adult">
    <walk from="-381458583#2" to="-381458608#1" />
  </person>
  <person id="ped_166" depart="1705.20" type="adult">
    <walk from="-381458583#2" to="-381458608#1" />
  </person>
  <person id="ped_167" depart="1717.78" type="adult">
    <walk from="-381458583#2" to="-381458608#1" />
  </person>
  <person id="ped_168" depart="1746.87" type="elderly">
    <walk from="-381458583#2" to="-381458608#1" />
  </person>
  <person id="ped_169" depart="1749.65" type="adult">
    <walk from="-381458583#2" to="-381458608#1" />
  </person>
  <person id="ped_170" depart="1777.33" type="adult">
    <walk from="-381458583#2" to="-381458608#1" />
  </person>
  <person id="ped_171" depart="1786.37" type="adult">
    <walk from="-381458583#2" to="-381458608#1" />
  </person>
  <person id="ped_172" depart="1794.36" type="adult">
    <walk from="-381458583#2" to="-381458608#1" />
  </person>
  <person id="ped_173" depart="1795.90" type="adult">
    <walk from="-381458583#2" to="-381458608#1" />
  </person>
  <person id="ped_174" depart="1797.39" type="adult">
    <walk from="-381458583#2" to="-381458608#1" />
  </person>
  <person id="ped_175" depart="1810.98" type="adult">
    <walk from="-381458583#2" to="-381458608#1" />
  </person>
  <person id="ped_176" depart="1812.07" type="adult">
    <walk from="-381458583#2" to="-381458608#1" />
  </person>
  <person id="ped_177" depart="1826.72" type="adult">
    <walk from="-381458583#2" to="-381458608#1" />
  </person>
  <person id="ped_178" depart="1834.41" type="adult">
    <walk from="-381458583#2" to="-381458608#1" />
  </person>
  <person id="ped_179" depart="1846.03" type="adult">
    <walk from="-381458583#2" to="-381458608#1" />
  </person>
  <person id="ped_180" depart="1847.45" type="elderly">
    <walk from="-381458583#2" to="-381458608#1" />
  </person>
  <person id="ped_181" depart="1856.85" type="adult">
    <walk from="-381458583#2" to="-381458608#1" />
  </person>
  <person id="ped_182" depart="1859.03" type="elderly">
    <walk from="-381458583#2" to="-381458608#1" />
  </person>
  <person id="ped_183" depart="1866.52" type="adult">
    <walk from="-381458583#2" to="-381458608#1" />
  </person>
  <person id="ped_184" depart="1869.07" type="adult">
    <walk from="-381458583#2" to="-381458608#1" />
  </person>
  <person id="ped_185" depart="1872.59" type="adult">
    <walk from="-381458583#2" to="-381458608#1" />
  </person>
  <person id="ped_186" depart="1875.23" type="adult">
    <walk from="-381458583#2" to="-381458608#1" />
  </person>
  <person id="ped_187" depart="1878.28" type="adult">
    <walk from="-381458583#2" to="-381458608#1" />
  </person>
  <person id="ped_188" depart="1888.43" type="adult">
    <walk from="-381458583#2" to="-381458608#1" />
  </person>
  <person id="ped_189" depart="1894.66" type="elderly">
    <walk from="-381458583#2" to="-381458608#1" />
  </person>
  <person id="ped_190" depart="1897.17" type="adult">
    <walk from="-381458583#2" to="-381458608#1" />
  </person>
  <person id="ped_191" depart="1927.90" type="adult">
    <walk from="-381458583#2" to="-381458608#1" />
  </person>
  <person id="ped_192" depart="1928.39" type="elderly">
    <walk from="-381458583#2" to="-381458608#1" />
  </person>
  <person id="ped_193" depart="1939.05" type="adult">
    <walk from="-381458583#2" to="-381458608#1" />
  </person>
  <person id="ped_194" depart="1941.65" type="adult">
    <walk from="-381458583#2" to="-381458608#1" />
  </person>
  <person id="ped_195" depart="1965.26" type="elderly">
    <walk from="-381458583#2" to="-381458608#1" />
  </person>
  <person id="ped_196" depart="1966.29" type="adult">
    <walk from="-381458583#2" to="-381458608#1" />
  </person>
  <person id="ped_197" depart="1974.49" type="adult">
    <walk from="-381458583#2" to="-381458608#1" />
  </person>
  <person id="ped_198" depart="1976.91" type="adult">
    <walk from="-381458583#2" to="-381458608#1" />
  </person>
  <person id="ped_199" depart="1979.81" type="elderly">
    <walk from="-381458583#2" to="-381458608#1" />
  </person>
  <person id="ped_200" depart="1988.13" type="elderly">
    <walk from="-381458583#2" to="-381458608#1" />
  </person>
  <person id="ped_201" depart="1989.59" type="adult">
    <walk from="-381458583#2" to="-381458608#1" />
  </person>
  <person id="ped_202" depart="1991.09" type="adult">
    <walk from="-381458583#2" to="-381458608#1" />
  </person>
  <person id="ped_203" depart="1996.37" type="elderly">
    <walk from="-381458583#2" to="-381458608#1" />
  </person>
  <person id="ped_204" depart="2001.20" type="adult">
    <walk from="-381458583#2" to="-381458608#1" />
  </person>
  <person id="ped_205" depart="2006.58" type="adult">
    <walk from="-381458583#2" to="-381458608#1" />
  </person>
  <person id="ped_206" depart="2024.53" type="adult">
    <walk from="-381458583#2" to="-381458608#1" />
  </person>
  <person id="ped_207" depart="2025.59" type="elderly">
    <walk from="-381458583#2" to="-381458608#1" />
  </person>
  <person id="ped_208" depart="2030.83" type="adult">
    <walk from="-381458583#2" to="-381458608#1" />
  </person>
  <person id="ped_209" depart="2032.21" type="adult">
    <walk from="-381458583#2" to="-381458608#1" />
  </person>
  <person id="ped_210" depart="2038.82" type="elderly">
    <walk from="-381458583#2" to="-381458608#1" />
  </person>
  <person id="ped_211" depart="2046.50" type="adult">
    <walk from="-381458583#2" to="-381458608#1" />
  </person>
  <person id="ped_212" depart="2056.14" type="adult">
    <walk from="-381458583#2" to="-381458608#1" />
  </person>
  <person id="ped_213" depart="2062.07" type="adult">
    <walk from="-381458583#2" to="-381458608#1" />
  </person>
  <person id="ped_214" depart="2064.26" type="adult">
    <walk from="-381458583#2" to="-381458608#1" />
  </person>
  <person id="ped_215" depart="2069.30" type="adult">
    <walk from="-381458583#2" to="-381458608#1" />
  </person>
  <person id="ped_216" depart="2077.66" type="adult">
    <walk from="-381458583#2" to="-381458608#1" />
  </person>
  <person id="ped_217" depart="2084.88" type="adult">
    <walk from="-381458583#2" to="-381458608#1" />
  </person>
  <person id="ped_218" depart="2092.74" type="adult">
    <walk from="-381458583#2" to="-381458608#1" />
  </person>
  <person id="ped_219" depart="2113.42" type="elderly">
    <walk from="-381458583#2" to="-381458608#1" />
  </person>
  <person id="ped_220" depart="2134.40" type="adult">
    <walk from="-381458583#2" to="-381458608#1" />
  </person>
  <person id="ped_221" depart="2136.51" type="adult">
    <walk from="-381458583#2" to="-381458608#1" />
  </person>
  <person id="ped_222" depart="2139.60" type="adult">
    <walk from="-381458583#2" to="-381458608#1" />
  </person>
  <person id="ped_223" depart="2143.15" type="elderly">
    <walk from="-381458583#2" to="-381458608#1" />
  </person>
  <person id="ped_224" depart="2166.11" type="elderly">
    <walk from="-381458583#2" to="-381458608#1" />
  </person>
  <person id="ped_225" depart="2185.15" type="adult">
    <walk from="-381458583#2" to="-381458608#1" />
  </person>
  <person id="ped_226" depart="2187.89" type="adult">
    <walk from="-381458583#2" to="-381458608#1" />
  </person>
  <person id="ped_227" depart="2189.63" type="adult">
    <walk from="-381458583#2" to="-381458608#1" />
  </person>
  <person id="ped_228" depart="2198.33" type="elderly">
    <walk from="-381458583#2" to="-381458608#1" />
  </person>
  <person id="ped_229" depart="2213.13" type="adult">
    <walk from="-381458583#2" to="-381458608#1" />
  </person>
  <person id="ped_230" depart="2235.62" type="adult">
    <walk from="-381458583#2" to="-381458608#1" />
  </person>
  <person id="ped_231" depart="2235.77" type="adult">
    <walk from="-381458583#2" to="-381458608#1" />
  </person>
  <person id="ped_232" depart="2241.96" type="adult">
    <walk from="-381458583#2" to="-381458608#1" />
  </person>
  <person id="ped_233" depart="2244.35" type="adult">
    <walk from="-381458583#2" to="-381458608#1" />
  </person>
  <person id="ped_234" depart="2256.23" type="adult">
    <walk from="-381458583#2" to="-381458608#1" />
  </person>
  <person id="ped_235" depart="2264.17" type="adult">
    <walk from="-381458583#2" to="-381458608#1" />
  </person>
  <person id="ped_236" depart="2264.50" type="elderly">
    <walk from="-381458583#2" to="-381458608#1" />
  </person>
  <person id="ped_237" depart="2270.80" type="elderly">
    <walk from="-381458583#2" to="-381458608#1" />
  </person>
  <person id="ped_238" depart="2275.49" type="adult">
    <walk from="-381458583#2" to="-381458608#1" />
  </person>
  <person id="ped_239" depart="2298.44" type="adult">
    <walk from="-381458583#2" to="-381458608#1" />
  </person>
  <person id="ped_240" depart="2300.86" type="adult">
    <walk from="-381458583#2" to="-381458608#1" />
  </person>
  <person id="ped_241" depart="2300.98" type="adult">
    <walk from="-381458583#2" to="-381458608#1" />
  </person>
  <person id="ped_242" depart="2304.21" type="elderly">
    <walk from="-381458583#2" to="-381458608#1" />
  </person>
  <person id="ped_243" depart="2313.14" type="adult">
    <walk from="-381458583#2" to="-381458608#1" />
  </person>
  <person id="ped_244" depart="2315.69" type="adult">
    <walk from="-381458583#2" to="-381458608#1" />
  </person>
  <person id="ped_245" depart="2329.93" type="elderly">
    <walk from="-381458583#2" to="-381458608#1" />
  </person>
  <person id="ped_246" depart="2334.48" type="elderly">
    <walk from="-381458583#2" to="-381458608#1" />
  </person>
  <person id="ped_247" depart="2335.90" type="adult">
    <walk from="-381458583#2" to="-381458608#1" />
  </person>
  <person id="ped_248" depart="2341.54" type="adult">
    <walk from="-381458583#2" to="-381458608#1" />
  </person>
  <person id="ped_249" depart="2342.34" type="adult">
    <walk from="-381458583#2" to="-381458608#1" />
  </person>
  <person id="ped_250" depart="2349.46" type="adult">
    <walk from="-381458583#2" to="-381458608#1" />
  </person>
  <person id="ped_251" depart="2353.71" type="adult">
    <walk from="-381458583#2" to="-381458608#1" />
  </person>
  <person id="ped_252" depart="2353.88" type="adult">
    <walk from="-381458583#2" to="-381458608#1" />
  </person>
  <person id="ped_253" depart="2354.61" type="adult">
    <walk from="-381458583#2" to="-381458608#1" />
  </person>
  <person id="ped_254" depart="2364.47" type="adult">
    <walk from="-381458583#2" to="-381458608#1" />