<?xml version="1.0" encoding="UTF-8"?>

<!-- generated on 2026-04-17 02:50:56.504630 by Eclipse SUMO randomTrips.py v1.26.0
<configuration>
    <net-file value="/Users/junlee/Desktop/2026-1/js/result/tradeoff_pet_top12_seed12_60min_20260417_024953/sumo_nets/cw_125895/network.net.xml"/>
    <output-trip-file value="/Users/junlee/Desktop/2026-1/js/result/tradeoff_pet_top12_seed12_60min_20260417_024953/sumo_nets/cw_125895/routes_seed52.trips.xml"/>
    <route-file value="/Users/junlee/Desktop/2026-1/js/result/tradeoff_pet_top12_seed12_60min_20260417_024953/sumo_nets/cw_125895/routes_seed52.rou.xml"/>
    <vehicle-class value="passenger"/>
    <seed value="52"/>
    <period value="1.6180924424771383"/>
</configuration>
-->

<routes xmlns:xsi="http://www.w3.org/2001/XMLSchema-instance" xsi:noNamespaceSchemaLocation="http://sumo.dlr.de/xsd/routes_file.xsd">
    <vType id="passenger" vClass="passenger"/>
    <trip id="0" depart="0.00" from="381741964#2" to="218681380#1" type="passenger"/>
    <trip id="1" depart="1.62" from="913718470" to="-519097168#2" type="passenger"/>
    <trip id="2" depart="3.24" from="97537672" to="-519097168#4" type="passenger"/>
    <trip id="3" depart="4.85" from="-381741948#1" to="-420187962#0" type="passenger"/>
    <trip id="4" depart="6.47" from="381741932#1" to="-218910324#1" type="passenger"/>
    <trip id="5" depart="8.09" from="-519097168#4" to="-218681380#1" type="passenger"/>
    <trip id="6" depart="9.71" from="-218960891#2" to="-381741929#2" type="passenger"/>
    <trip id="7" depart="11.33" from="-381746303#1" to="-381746304#0" type="passenger"/>
    <trip id="8" depart="12.94" from="381746313" to="-519097168#4" type="passenger"/>
    <trip id="9" depart="14.56" from="420187962#2" to="519097167#1" type="passenger"/>
    <trip id="10" depart="16.18" from="519097168#0" to="913718470" type="passenger"/>
    <trip id="11" depart="17.80" from="381458603#1" to="381741932#2" type="passenger"/>
    <trip id="12" depart="19.42" from="519097167#0" to="218960891#2" type="passenger"/>
    <trip id="13" depart="21.04" from="-381458608#1" to="218910324#3" type="passenger"/>
    <trip id="14" depart="22.65" from="218960891#4" to="-381741934" type="passenger"/>
    <trip id="15" depart="24.27" from="-381458583#0" to="-381741937" type="passenger"/>
    <trip id="16" depart="25.89" from="381741958#0" to="381746321#0" type="passenger"/>
    <trip id="17" depart="27.51" from="381741934" to="-913722640" type="passenger"/>
    <trip id="18" depart="29.13" from="-218910324#1" to="-218681380#0" type="passenger"/>
    <trip id="19" depart="30.74" from="381741934" to="218910324#5" type="passenger"/>
    <trip id="20" depart="32.36" from="218681380#2" to="-381741929#2" type="passenger"/>
    <trip id="21" depart="33.98" from="-381458603#0" to="-381741934" type="passenger"/>
    <trip id="22" depart="35.60" from="-381458603#1" to="381458583#3" type="passenger"/>
    <trip id="23" depart="37.22" from="-413106892" to="218960891#4" type="passenger"/>
    <trip id="24" depart="38.83" from="-920025287#4" to="218960891#2" type="passenger"/>
    <trip id="25" depart="40.45" from="381746304#0" to="381746308" type="passenger"/>
    <trip id="26" depart="42.07" from="-381741925" to="920025287#0" type="passenger"/>
    <trip id="27" depart="43.69" from="420187962#2" to="381746325#0" type="passenger"/>
    <trip id="28" depart="45.31" from="218681380#1" to="920025286" type="passenger"/>
    <trip id="29" depart="46.92" from="381746325#0" to="-381741964#0" type="passenger"/>
    <trip id="30" depart="48.54" from="381741957#1" to="420103660" type="passenger"/>
    <trip id="31" depart="50.16" from="381746304#1" to="519097167#1" type="passenger"/>
    <trip id="32" depart="51.78" from="218960891#4" to="381741932#2" type="passenger"/>
    <trip id="33" depart="53.40" from="-218960891#3" to="381741932#0" type="passenger"/>
    <trip id="34" depart="55.02" from="-381458608#1" to="381741961#1" type="passenger"/>
    <trip id="35" depart="56.63" from="519097168#1" to="-458731949" type="passenger"/>
    <trip id="36" depart="58.25" from="-218960891#2" to="-218910324#2" type="passenger"/>
    <trip id="37" depart="59.87" from="218960891#2" to="-381741929#0" type="passenger"/>
    <trip id="38" depart="61.49" from="381746303#1" to="381458603#0" type="passenger"/>
    <trip id="39" depart="63.11" from="218960891#0" to="381741932#2" type="passenger"/>
    <trip id="40" depart="64.72" from="-381741925" to="-920025287#3" type="passenger"/>
    <trip id="41" depart="66.34" from="-218910324#4" to="218960891#2" type="passenger"/>
    <trip id="42" depart="67.96" from="381746317#0" to="-381741927" type="passenger"/>
    <trip id="43" depart="69.58" from="381741957#1" to="97537664#1-AddedOnRampEdge" type="passenger"/>
    <trip id="44" depart="71.20" from="-420187962#2" to="-381741957#1" type="passenger"/>
    <trip id="45" depart="72.81" from="-218960891#4" to="381746308" type="passenger"/>
    <trip id="46" depart="74.43" from="-381746308" to="381746304#1" type="passenger"/>
    <trip id="47" depart="76.05" from="519097167#1" to="420103660" type="passenger"/>
    <trip id="48" depart="77.67" from="-420187962#1" to="420314177" type="passenger"/>
    <trip id="49" depart="79.29" from="-381746325#1" to="-381741929#2" type="passenger"/>
    <trip id="50" depart="80.90" from="-920025287#1" to="-218960891#4" type="passenger"/>
    <trip id="51" depart="82.52" from="-381741964#2" to="381741948#1" type="passenger"/>
    <trip id="52" depart="84.14" from="-420187962#2" to="-381741937" type="passenger"/>
    <trip id="53" depart="85.76" from="913717725" to="-381746303#0" type="passenger"/>
    <trip id="54" depart="87.38" from="381746317#1" to="381741932#4" type="passenger"/>
    <trip id="55" depart="89.00" from="381458608#0" to="413106898" type="passenger"/>
    <trip id="56" depart="90.61" from="381741958#0" to="-381746303#1" type="passenger"/>
    <trip id="57" depart="92.23" from="381741934" to="218910324#1" type="passenger"/>
    <trip id="58" depart="93.85" from="218681380#1" to="920025287#1" type="passenger"/>
    <trip id="59" depart="95.47" from="-218960891#2" to="381741961#1" type="passenger"/>
    <trip id="60" depart="97.09" from="519097168#1" to="381458603#0" type="passenger"/>
    <trip id="61" depart="98.70" from="-218910324#5" to="381746308" type="passenger"/>
    <trip id="62" depart="100.32" from="-381746313" to="218910324#3" type="passenger"/>
    <trip id="63" depart="101.94" from="381746325#1" to="-381746317#1" type="passenger"/>
    <trip id="64" depart="103.56" from="-381746304#2" to="-381458603#0" type="passenger"/>
    <trip id="65" depart="105.18" from="-458731949" to="-381458583#1" type="passenger"/>
    <trip id="66" depart="106.79" from="381741958#0" to="381746325#1" type="passenger"/>
    <trip id="67" depart="108.41" from="-218910324#5" to="218910324#4" type="passenger"/>
    <trip id="68" depart="110.03" from="381746317#0" to="381746308" type="passenger"/>
    <trip id="69" depart="111.65" from="-381746313" to="218910324#5" type="passenger"/>
    <trip id="70" depart="113.27" from="381741957#0" to="218910324#3" type="passenger"/>
    <trip id="71" depart="114.88" from="97537672" to="519097168#1" type="passenger"/>
    <trip id="72" depart="116.50" from="920025287#1" to="-381458603#1" type="passenger"/>
    <trip id="73" depart="118.12" from="-218910324#0" to="381458583#2" type="passenger"/>
    <trip id="74" depart="119.74" from="381458608#0" to="-381746303#1" type="passenger"/>
    <trip id="75" depart="121.36" from="-381746304#1" to="381746310" type="passenger"/>
    <trip id="76" depart="122.98" from="381746317#1" to="-218681380#2" type="passenger"/>
    <trip id="77" depart="124.59" from="-381458603#0" to="381741961#0" type="passenger"/>
    <trip id="78" depart="126.21" from="-920025287#3" to="-381741927" type="passenger"/>
    <trip id="79" depart="127.83" from="920025286" to="-381746325#1" type="passenger"/>
    <trip id="80" depart="129.45" from="-218960891#4" to="-519097168#2" type="passenger"/>
    <trip id="81" depart="131.07" from="381746304#3" to="-218960891#3" type="passenger"/>
    <trip id="82" depart="132.68" from="218910324#0" to="519097167#1" type="passenger"/>
    <trip id="83" depart="134.30" from="218910324#2" to="519097166#0" type="passenger"/>
    <trip id="84" depart="135.92" from="519097168#1" to="381746317#1" type="passenger"/>
    <trip id="85" depart="137.54" from="381741932#4" to="-381458593" type="passenger"/>
    <trip id="86" depart="139.16" from="920025287#4" to="-381746313" type="passenger"/>
    <trip id="87" depart="140.77" from="-413106892" to="218910324#1" type="passenger"/>
    <trip id="88" depart="142.39" from="375125202" to="381746304#3" type="passenger"/>
    <trip id="89" depart="144.01" from="381458583#0" to="519097168#2" type="passenger"/>
    <trip id="90" depart="145.63" from="-381746317#1" to="381741925" type="passenger"/>
    <trip id="91" depart="147.25" from="218960891#0" to="381746304#1" type="passenger"/>
    <trip id="92" depart="148.86" from="-381746317#1" to="381746313" type="passenger"/>
    <trip id="93" depart="150.48" from="381741961#1" to="-381741934" type="passenger"/>
    <trip id="94" depart="152.10" from="913718470" to="218681380#2" type="passenger"/>
    <trip id="95" depart="153.72" from="117770556#1" to="-413106892" type="passenger"/>
    <trip id="96" depart="155.34" from="-519097168#4" to="381746317#1" type="passenger"/>
    <trip id="97" depart="156.95" from="218960891#4" to="-920025287#4" type="passenger"/>
    <trip id="98" depart="158.57" from="-381458603#0" to="519097166#0" type="passenger"/>
    <trip id="99" depart="160.19" from="-920025287#3" to="-218910324#0" type="passenger"/>
    <trip id="100" depart="161.81" from="-381746304#0" to="-381746313" type="passenger"/>
    <trip id="101" depart="163.43" from="381746315" to="-381741934" type="passenger"/>
    <trip id="102" depart="165.05" from="-381741927" to="519097167#1" type="passenger"/>
    <trip id="103" depart="166.66" from="-413106892" to="781179155" type="passenger"/>
    <trip id="104" depart="168.28" from="-218681380#2" to="-218960891#4" type="passenger"/>
    <trip id="105" depart="169.90" from="-381741961#1" to="-519097167#1" type="passenger"/>
    <trip id="106" depart="171.52" from="381458583#0" to="-381746325#0" type="passenger"/>
    <trip id="107" depart="173.14" from="920025287#1" to="913718470" type="passenger"/>
    <trip id="108" depart="174.75" from="381458603#0" to="920025287#4" type="passenger"/>
    <trip id="109" depart="176.37" from="420187962#3" to="920025287#3" type="passenger"/>
    <trip id="110" depart="177.99" from="381458608#1" to="-381458583#2" type="passenger"/>
    <trip id="111" depart="179.61" from="381458603#0" to="-218910324#3" type="passenger"/>
    <trip id="112" depart="181.23" from="-920025287#1" to="97537664#1-AddedOnRampEdge" type="passenger"/>
    <trip id="113" depart="182.84" from="-920025286" to="381741932#4" type="passenger"/>
    <trip id="114" depart="184.46" from="-519097168#2" to="218910324#2" type="passenger"/>
    <trip id="115" depart="186.08" from="-381458603#0" to="381746310" type="passenger"/>
    <trip id="116" depart="187.70" from="381741932#4" to="-381746325#0" type="passenger"/>
    <trip id="117" depart="189.32" from="117770556#0" to="420187962#1" type="passenger"/>
    <trip id="118" depart="190.93" from="-218910324#4" to="-381741958#2" type="passenger"/>
    <trip id="119" depart="192.55" from="381741932#0" to="381746313" type="passenger"/>
    <trip id="120" depart="194.17" from="381458583#0" to="381458608#1" type="passenger"/>
    <trip id="121" depart="195.79" from="-218681380#2" to="381452100" type="passenger"/>
    <trip id="122" depart="197.41" from="381458583#2" to="-218960891#2" type="passenger"/>
    <trip id="123" depart="199.03" from="218960891#4" to="-381741964#2" type="passenger"/>
    <trip id="124" depart="200.64" from="-458731949" to="381746313" type="passenger"/>
    <trip id="125" depart="202.26" from="420101309" to="-218681380#1" type="passenger"/>
    <trip id="126" depart="203.88" from="-381452100" to="381741925" type="passenger"/>
    <trip id="127" depart="205.50" from="788296730" to="381741925" type="passenger"/>
    <trip id="128" depart="207.12" from="-458731949" to="381746303#1" type="passenger"/>
    <trip id="129" depart="208.73" from="519097168#4" to="-218960891#1" type="passenger"/>
    <trip id="130" depart="210.35" from="-218910324#2" to="-920025286" type="passenger"/>
    <trip id="131" depart="211.97" from="381741961#1" to="218910324#3" type="passenger"/>
    <trip id="132" depart="213.59" from="218910324#1" to="-381741929#0" type="passenger"/>
    <trip id="133" depart="215.21" from="218681380#4" to="-381746303#0" type="passenger"/>
    <trip id="134" depart="216.82" from="381458608#0" to="-920025287#4" type="passenger"/>
    <trip id="135" depart="218.44" from="-420187962#1" to="381746304#2" type="passenger"/>
    <trip id="136" depart="220.06" from="-420314177" to="-920025287#3" type="passenger"/>
    <trip id="137" depart="221.68" from="218681380#2" to="381741948#1" type="passenger"/>
    <trip id="138" depart="223.30" from="920025287#3" to="381741964#2" type="passenger"/>
    <trip id="139" depart="224.91" from="-218681380#1" to="381746304#0" type="passenger"/>
    <trip id="140" depart="226.53" from="218960891#3" to="381741927" type="passenger"/>
    <trip id="141" depart="228.15" from="-218910324#2" to="-218681380#2" type="passenger"/>
    <trip id="142" depart="229.77" from="-218681380#4" to="-381458603#0" type="passenger"/>
    <trip id="143" depart="231.39" from="381746304#3" to="-519097168#2" type="passenger"/>
    <trip id="144" depart="233.01" from="-381741964#1" to="-920025286" type="passenger"/>
    <trip id="145" depart="234.62" from="-381458593" to="-381741964#1" type="passenger"/>
    <trip id="146" depart="236.24" from="218681380#0" to="519097167#0" type="passenger"/>
    <trip id="147" depart="237.86" from="381741964#2" to="-381458593" type="passenger"/>
    <trip id="148" depart="239.48" from="381746317#1" to="920025287#3" type="passenger"/>
    <trip id="149" depart="241.10" from="519097167#1" to="-381741929#2" type="passenger"/>
    <trip id="150" depart="242.71" from="381458608#1" to="913718470" type="passenger"/>
    <trip id="151" depart="244.33" from="-381746304#3" to="381458583#0" type="passenger"/>
    <trip id="152" depart="245.95" from="381741932#1" to="920025287#0" type="passenger"/>
    <trip id="153" depart="247.57" from="413106892" to="-920025287#4" type="passenger"/>
    <trip id="154" depart="249.19" from="381741925" to="-381741957#0" type="passenger"/>
    <trip id="155" depart="250.80" from="413106892" to="-381741964#0" type="passenger"/>
    <trip id="156" depart="252.42" from="381741937" to="-381741925" type="passenger"/>
    <trip id="157" depart="254.04" from="381741964#2" to="381746321#0" type="passenger"/>
    <trip id="158" depart="255.66" from="-381458583#3" to="-519097168#1" type="passenger"/>
    <trip id="159" depart="257.28" from="-381741927" to="218910324#4" type="passenger"/>
    <trip id="160" depart="258.89" from="-381746304#0" to="781179155" type="passenger"/>
    <trip id="161" depart="260.51" from="-381746304#2" to="-381746303#1" type="passenger"/>
    <trip id="162" depart="262.13" from="-381458608#0" to="218960891#3" type="passenger"/>
    <trip id="163" depart="263.75" from="381741964#1" to="218681380#4" type="passenger"/>
    <trip id="164" depart="265.37" from="218960891#1" to="-381741929#2" type="passenger"/>
    <trip id="165" depart="266.99" from="218681380#2" to="413106898" type="passenger"/>
    <trip id="166" depart="268.60" from="-218960891#4" to="-381741958#2" type="passenger"/>
    <trip id="167" depart="270.22" from="218960891#3" to="218910324#0" type="passenger"/>
    <trip id="168" depart="271.84" from="920025287#4" to="218681380#2" type="passenger"/>
    <trip id="169" depart="273.46" from="381746304#1" to="-381746313" type="passenger"/>
    <trip id="170" depart="275.08" from="381458593" to="913717725" type="passenger"/>
    <trip id="171" depart="276.69" from="420187962#1" to="117770556#1" type="passenger"/>
    <trip id="172" depart="278.31" from="-381746304#2" to="-381741964#2" type="passenger"/>
    <trip id="173" depart="279.93" from="-920025286" to="381746315" type="passenger"/>
    <trip id="174" depart="281.55" from="-920025287#2" to="218910324#3" type="passenger"/>
    <trip id="175" depart="283.17" from="-381741927" to="-218910324#3" type="passenger"/>
    <trip id="176" depart="284.78" from="-381741961#1" to="218960891#2" type="passenger"/>
    <trip id="177" depart="286.40" from="381741932#4" to="381746304#0" type="passenger"/>
    <trip id="178" depart="288.02" from="-920025286" to="381741932#2" type="passenger"/>
    <trip id="179" depart="289.64" from="788296730" to="-218910324#2" type="passenger"/>
    <trip id="180" depart="291.26" from="381458583#2" to="-381741961#0" type="passenger"/>
    <trip id="181" depart="292.87" from="920025287#0" to="-381741925" type="passenger"/>
    <trip id="182" depart="294.49" from="-420187962#2" to="-420187962#3" type="passenger"/>
    <trip id="183" depart="296.11" from="381746304#1" to="381741932#2" type="passenger"/>
    <trip id="184" depart="297.73" from="-218910324#4" to="117770556#1" type="passenger"/>
    <trip id="185" depart="299.35" from="-519097166#0" to="-381741927" type="passenger"/>
    <trip id="186" depart="300.97" from="-218910324#1" to="117770556#1" type="passenger"/>
    <trip id="187" depart="302.58" from="381746325#0" to="97537664#1-AddedOnRampEdge" type="passenger"/>
    <trip id="188" depart="304.20" from="-381741964#2" to="-381746304#2" type="passenger"/>
    <trip id="189" depart="305.82" from="381741932#1" to="381458583#1" type="passenger"/>
    <trip id="190" depart="307.44" from="-519097168#1" to="-381741929#0" type="passenger"/>
    <trip id="191" depart="309.06" from="-381746325#0" to="218910324#2" type="passenger"/>
    <trip id="192" depart="310.67" from="-381458583#0" to="218681380#2" type="passenger"/>
    <trip id="193" depart="312.29" from="-381458583#3" to="-381746325#0" type="passenger"/>
    <trip id="194" depart="313.91" from="381741932#2" to="381741964#1" type="passenger"/>
    <trip id="195" depart="315.53" from="920025287#3" to="381741932#4" type="passenger"/>
    <trip id="196" depart="317.15" from="-381458583#0" to="381458608#1" type="passenger"/>
    <trip id="197" depart="318.76" from="-381746317#1" to="-381741961#0" type="passenger"/>
    <trip id="198" depart="320.38" from="381741934" to="-381746325#1" type="passenger"/>
    <trip id="199" depart="322.00" from="519097167#1" to="218910324#3" type="passenger"/>
    <trip id="200" depart="323.62" from="-218910324#4" to="781179155" type="passenger"/>
    <trip id="201" depart="325.24" from="788296730" to="-920025287#3" type="passenger"/>
    <trip id="202" depart="326.85" from="519097168#4" to="381741964#1" type="passenger"/>
    <trip id="203" depart="328.47" from="381746303#1" to="-218960891#3" type="passenger"/>
    <trip id="204" depart="330.09" from="381741932#3" to="-920025287#3" type="passenger"/>
    <trip id="205" depart="331.71" from="-920025286" to="-381741948#1" type="passenger"/>
    <trip id="206" depart="333.33" from="381741932#2" to="381746308" type="passenger"/>
    <trip id="207" depart="334.95" from="381741937" to="-218960891#0" type="passenger"/>
    <trip id="208" depart="336.56" from="381741932#4" to="-218960891#4" type="passenger"/>
    <trip id="209" depart="338.18" from="-218910324#4" to="458731949" type="passenger"/>
    <trip id="210" depart="339.80" from="381741929#1" to="-218960891#1" type="passenger"/>
    <trip id="211" depart="341.42" from="-420103660" to="-381746304#3" type="passenger"/>
    <trip id="212" depart="343.04" from="117770556#1" to="519097168#1" type="passenger"/>
    <trip id="213" depart="344.65" from="913717725" to="-381741929#2" type="passenger"/>
    <trip id="214" depart="346.27" from="381458583#0" to="458731949" type="passenger"/>
    <trip id="215" depart="347.89" from="97537672" to="218910324#5" type="passenger"/>
    <trip id="216" depart="349.51" from="-381741958#2" to="381741939" type="passenger"/>
    <trip id="217" depart="351.13" from="-381458583#0" to="381746304#1" type="passenger"/>
    <trip id="218" depart="352.74" from="420187962#2" to="420314177" type="passenger"/>
    <trip id="219" depart="354.36" from="381746304#1" to="-381741948#0" type="passenger"/>
    <trip id="220" depart="355.98" from="218960891#3" to="-381741961#1" type="passenger"/>
    <trip id="221" depart="357.60" from="-218910324#3" to="381746321#1" type="passenger"/>
    <trip id="222" depart="359.22" from="-218960891#2" to="381458583#3" type="passenger"/>
    <trip id="223" depart="360.83" from="-420103660" to="381458603#0" type="passenger"/>
    <trip id="224" depart="362.45" from="-458731949" to="381741927" type="passenger"/>
    <trip id="225" depart="364.07" from="913718470" to="-381458603#1" type="passenger"/>
    <trip id="226" depart="365.69" from="381741957#1" to="218910324#1" type="passenger"/>
    <trip id="227" depart="367.31" from="913722640" to="381458583#3" type="passenger"/>
    <trip id="228" depart="368.93" from="-218910324#0" to="-381741929#0" type="passenger"/>
    <trip id="229" depart="370.54" from="218960891#3" to="381458583#3" type="passenger"/>
    <trip id="230" depart="372.16" from="519097168#4" to="218910324#0" type="passenger"/>
    <trip id="231" depart="373.78" from="420187962#3" to="381452100" type="passenger"/>
    <trip id="232" depart="375.40" from="-920025287#2" to="519097166#0" type="passenger"/>
    <trip id="233" depart="377.02" from="381741929#2" to="-381741958#0" type="passenger"/>
    <trip id="234" depart="378.63" from="-920025287#1" to="-381458603#1" type="passenger"/>
    <trip id="235" depart="380.25" from="420101309" to="781179155" type="passenger"/>
    <trip id="236" depart="381.87" from="920025287#4" to="218910324#2" type="passenger"/>
    <trip id="237" depart="383.49" from="-381746304#3" to="381741932#2" type="passenger"/>
    <trip id="238" depart="385.11" from="381741929#1" to="920025287#3" type="passenger"/>
    <trip id="239" depart="386.72" from="-519097168#1" to="420187962#3" type="passenger"/>
    <trip id="240" depart="388.34" from="218681380#2" to="218960891#4" type="passenger"/>
    <trip id="241" depart="389.96" from="381746303#0" to="218910324#0" type="passenger"/>
    <trip id="242" depart="391.58" from="-218910324#1" to="-381741937" type="passenger"/>
    <trip id="243" depart="393.20" from="381741948#1" to="381741932#2" type="passenger"/>
    <trip id="244" depart="394.81" from="-519097168#0" to="-458731949" type="passenger"/>
    <trip id="245" depart="396.43" from="381746321#0" to="-381746304#0" type="passenger"/>
    <trip id="246" depart="398.05" from="-381741927" to="-381741948#0" type="passenger"/>
    <trip id="247" depart="399.67" from="381458608#0" to="-920025287#3" type="passenger"/>
    <trip id="248" depart="401.29" from="117770556#1" to="97537664#1" type="passenger"/>
    <trip id="249" depart="402.91" from="-218910324#1" to="381746303#1" type="passenger"/>
    <trip id="250" depart="404.52" from="-381746325#1" to="-420187962#1" type="passenger"/>
    <trip id="251" depart="406.14" from="-381746304#0" to="-381746304#3" type="passenger"/>
    <trip id="252" depart="407.76" from="-218910324#2" to="-381458583#1" type="passenger"/>
    <trip id="253" depart="409.38" from="117770556#0" to="920025287#0" type="passenger"/>
    <trip id="254" depart="411.00" from="-381746317#1" to="-519097168#1" type="passenger"/>
    <trip id="255" depart="412.61" from="-381741964#2" to="381458593" type="passenger"/>
    <trip id="256" depart="414.23" from="-381746325#1" to="-381746313" type="passenger"/>
    <trip id="257" depart="415.85" from="-381458608#1" to="-920025287#4" type="passenger"/>
    <trip id="258" depart="417.47" from="381746304#2" to="-381741961#1" type="passenger"/>
    <trip id="259" depart="419.09" from="381458603#0" to="-381741964#0" type="passenger"/>
    <trip id="260" depart="420.70" from="218681380#1" to="-381746303#0" type="passenger"/>
    <trip id="261" depart="422.32" from="381746315" to="-381458593" type="passenger"/>
    <trip id="262" depart="423.94" from="381746313" to="-218910324#2" type="passenger"/>
    <trip id="263" depart="425.56" from="381741948#0" to="-381746304#1" type="passenger"/>
    <trip id="264" depart="427.18" from="-920025287#0" to="-381741948#1" type="passenger"/>
    <trip id="265" depart="428.79" from="-519097168#1" to="381458608#1" type="passenger"/>
    <trip id="266" depart="430.41" from="381741932#1" to="381741932#0" type="passenger"/>
    <trip id="267" depart="432.03" from="-381741964#1" to="218910324#2" type="passenger"/>
    <trip id="268" depart="433.65" from="420187962#3" to="117770556#1" type="passenger"/>
    <trip id="269" depart="435.27" from="420101309" to="381746315" type="passenger"/>
    <trip id="270" depart="436.88" from="-381458583#0" to="218910324#5" type="passenger"/>
    <trip id="271" depart="438.50" from="920025287#0" to="420187962#2" type="passenger"/>
    <trip id="272" depart="440.12" from="920025287#3" to="-381458608#1" type="passenger"/>
    <trip id="273" depart="441.74" from="-920025287#0" to="-381746325#0" type="passenger"/>
    <trip id="274" depart="443.36" from="381741958#2" to="-381458593" type="passenger"/>
    <trip id="275" depart="444.98" from="920025287#4" to="-519097168#2" type="passenger"/>
    <trip id="276" depart="446.59" from="381741932#0" to="381746321#0" type="passenger"/>
    <trip id="277" depart="448.21" from="-413106892" to="381458608#0" type="passenger"/>
    <trip id="278" depart="449.83" from="117770556#1" to="-519097168#1" type="passenger"/>
    <trip id="279" depart="451.45" from="381741929#1" to="519097168#2" type="passenger"/>
    <trip id="280" depart="453.07" from="-218910324#1" to="920025286" type="passenger"/>
    <trip id="281" depart="454.68" from="-381746317#1" to="218681380#2" type="passenger"/>
    <trip id="282" depart="456.30" from="381741929#1" to="381458583#3" type="passenger"/>
    <trip id="283" depart="457.92" from="420187962#1" to="-381741964#1" type="passenger"/>
    <trip id="284" depart="459.54" from="-381741925" to="-519097168#1" type="passenger"/>
    <trip id="285" depart="461.16" from="381741948#0" to="-218910324#1" type="passenger"/>
    <trip id="286" depart="462.77" from="-381458583#0" to="-420187962#0" type="passenger"/>
    <trip id="287" depart="464.39" from="381458603#0" to="-920025287#0" type="passenger"/>
    <trip id="288" depart="466.01" from="381741932#4" to="218910324#2" type="passenger"/>
    <trip id="289" depart="467.63" from="381741932#4" to="519097168#0" type="passenger"/>
    <trip id="290" depart="469.25" from="381746310" to="-381741927" type="passenger"/>
    <trip id="291" depart="470.86" from="-381458608#1" to="-920025287#2" type="passenger"/>
    <trip id="292" depart="472.48" from="-381458583#1" to="-920025287#2" type="passenger"/>
    <trip id="293" depart="474.10" from="-381746304#3" to="-519097168#2" type="passenger"/>
    <trip id="294" depart="475.72" from="-381458583#1" to="381458583#2" type="passenger"/>
    <trip id="295" depart="477.34" from="381746321#0" to="-381741964#2" type="passenger"/>
    <trip id="296" depart="478.96" from="519097168#1" to="-420187962#2" type="passenger"/>
    <trip id="297" depart="480.57" from="920025287#3" to="-420187962#3" type="passenger"/>
    <trip id="298" depart="482.19" from="381741925" to="381741932#3" type="passenger"/>
    <trip id="299" depart="483.81" from="-519097168#4" to="420103660" type="passenger"/>
    <trip id="300" depart="485.43" from="-381458603#1" to="381746304#0" type="passenger"/>
    <trip id="301" depart="487.05" from="381746315" to="519097168#2" type="passenger"/>
    <trip id="302" depart="488.66" from="381741925" to="381746317#1" type="passenger"/>
    <trip id="303" depart="490.28" from="-381741939" to="381746310" type="passenger"/>
    <trip id="304" depart="491.90" from="-381458583#2" to="781179155" type="passenger"/>
    <trip id="305" depart="493.52" from="913722640" to="-218910324#1" type="passenger"/>
    <trip id="306" depart="495.14" from="381746304#0" to="97537664#1" type="passenger"/>
    <trip id="307" depart="496.75" from="381746313" to="218960891#1" type="passenger"/>
    <trip id="308" depart="498.37" from="381746313" to="913717725" type="passenger"/>
    <trip id="309" depart="499.99" from="381746321#0" to="519097166#0" type="passenger"/>
    <trip id="310" depart="501.61" from="-381458583#3" to="381746321#0" type="passenger"/>
    <trip id="311" depart="503.23" from="381741964#2" to="420187962#3" type="passenger"/>
    <trip id="312" depart="504.84" from="-381746317#1" to="381458603#0" type="passenger"/>
    <trip id="313" depart="506.46" from="381746325#0" to="381746321#0" type="passenger"/>
    <trip id="314" depart="508.08" from="-381458583#1" to="381741932#1" type="passenger"/>
    <trip id="315" depart="509.70" from="-920025287#0" to="381458583#1" type="passenger"/>
    <trip id="316" depart="511.32" from="-381458603#0" to="-920025286" type="passenger"/>
    <trip id="317" depart="512.94" from="920025287#2" to="381741927" type="passenger"/>
    <trip id="318" depart="514.55" from="381741964#1" to="381746310" type="passenger"/>
    <trip id="319" depart="516.17" from="381741964#2" to="-381458583#0" type="passenger"/>
    <trip id="320" depart="517.79" from="218960891#3" to="381741932#0" type="passenger"/>
    <trip id="321" depart="519.41" from="381746317#1" to="-519097168#1" type="passenger"/>
    <trip id="322" depart="521.03" from="-218960891#3" to="-381746317#1" type="passenger"/>
    <trip id="323" depart="522.64" from="381746304#3" to="-381746304#2" type="passenger"/>