<?xml version="1.0" encoding="UTF-8"?>

<!-- generated on 2026-04-17 02:50:51.530045 by Eclipse SUMO randomTrips.py v1.26.0
<configuration>
    <net-file value="/Users/junlee/Desktop/2026-1/js/result/tradeoff_pet_top12_seed12_60min_20260417_024953/sumo_nets/cw_125895/network.net.xml"/>
    <output-trip-file value="/Users/junlee/Desktop/2026-1/js/result/tradeoff_pet_top12_seed12_60min_20260417_024953/sumo_nets/cw_125895/routes_seed46.trips.xml"/>
    <route-file value="/Users/junlee/Desktop/2026-1/js/result/tradeoff_pet_top12_seed12_60min_20260417_024953/sumo_nets/cw_125895/routes_seed46.rou.xml"/>
    <vehicle-class value="passenger"/>
    <seed value="46"/>
    <period value="1.7849466665759637"/>
</configuration>
-->

<!-- generated on 2026-04-17T02:50:51.482905+09:00 by Eclipse SUMO duarouter 1.26.0
<duarouterConfiguration xmlns:xsi="http://www.w3.org/2001/XMLSchema-instance" xsi:noNamespaceSchemaLocation="http://sumo.dlr.de/xsd/duarouterConfiguration.xsd">

    <input>
        <net-file value="/Users/junlee/Desktop/2026-1/js/result/tradeoff_pet_top12_seed12_60min_20260417_024953/sumo_nets/cw_125895/network.net.xml"/>
        <route-files value="/Users/junlee/Desktop/2026-1/js/result/tradeoff_pet_top12_seed12_60min_20260417_024953/sumo_nets/cw_125895/routes_seed46.trips.xml"/>
    </input>

    <output>
        <output-file value="/Users/junlee/Desktop/2026-1/js/result/tradeoff_pet_top12_seed12_60min_20260417_024953/sumo_nets/cw_125895/routes_seed46.rou.xml"/>
        <alternatives-output value="NUL"/>
    </output>

    <time>
        <begin value="0.0"/>
        <end value="3600.0"/>
    </time>

    <report>
        <no-warnings value="true"/>
        <ignore-errors value="true"/>
        <no-step-log value="true"/>
    </report>

</duarouterConfiguration>
-->

<routes xmlns:xsi="http://www.w3.org/2001/XMLSchema-instance" xsi:noNamespaceSchemaLocation="http://sumo.dlr.de/xsd/routes_file.xsd">
    <vType id="passenger" vClass="passenger"/>
    <vehicle id="0" type="passenger" depart="0.00">
        <route edges="519097167#1 -218910324#2 -218910324#1 913718470 -519097168#2 -519097168#1 -519097168#0"/>
    </vehicle>
    <vehicle id="1" type="passenger" depart="1.78">
        <route edges="381458608#1 -381458583#1 -381458583#0 -218681380#2 381458608#0 420187962#2"/>
    </vehicle>
    <vehicle id="2" type="passenger" depart="3.57">
        <route edges="-381746303#1 -381746304#3 -381746304#2 -381746304#1 -381746304#0 920025287#4 519097168#2 519097168#4 218910324#0 218910324#1 218910324#2"/>
    </vehicle>
    <vehicle id="3" type="passenger" depart="5.35">
        <route edges="381458608#1 -381458583#1 420187962#3 913718470"/>
    </vehicle>
    <vehicle id="4" type="passenger" depart="7.14">
        <route edges="-218910324#2 -218910324#1 -218910324#0 -218960891#4 -218960891#3 -218960891#2 -218960891#1"/>
    </vehicle>
    <vehicle id="5" type="passenger" depart="8.92">
        <route edges="-420187962#1 -381458603#1 -381458603#0 218681380#1 218681380#2 218681380#4 -218960891#4 -218960891#3 -218960891#2 -218960891#1 381746325#0"/>
    </vehicle>
    <vehicle id="6" type="passenger" depart="10.71">
        <route edges="420187962#0 420187962#1 -381458608#0"/>
    </vehicle>
    <vehicle id="7" type="passenger" depart="12.49">
        <route edges="920025287#1 920025287#2 920025287#3 920025287#4 -519097168#1 -519097168#0 -413106892 381746310 -381741957#1 781179155"/>
    </vehicle>
    <vehicle id="8" type="passenger" depart="14.28">
        <route edges="-381458583#0 218681380#4 -519097168#4 381746313 920025287#3"/>
    </vehicle>
    <vehicle id="9" type="passenger" depart="16.06">
        <route edges="218910324#1 218910324#2 218910324#3 -381741929#2 -381741929#1 -381741929#0"/>
    </vehicle>
    <vehicle id="10" type="passenger" depart="17.85">
        <route edges="218681380#4 -218960891#4 -218960891#3 -218960891#2"/>
    </vehicle>
    <vehicle id="11" type="passenger" depart="19.63">
        <route edges="381746304#0 381746304#1 381746304#2 -381746317#1 -381746321#0 -381746304#1 -381746304#0 -920025287#3 -920025287#2 -920025287#1 -920025287#0 920025286 -381746325#1 -381746325#0 218960891#1 218960891#2"/>
    </vehicle>
    <vehicle id="12" type="passenger" depart="21.42">
        <route edges="-381458583#3 381458593 -218910324#3 -519097167#1 -519097167#0 -381741961#1 -381741961#0"/>
    </vehicle>
    <vehicle id="13" type="passenger" depart="23.20">
        <route edges="218960891#1 218960891#2 381746308"/>
    </vehicle>
    <vehicle id="14" type="passenger" depart="24.99">
        <route edges="-381746317#1 -381746321#0 -381746304#1 -381746304#0 920025287#4 519097168#2 519097168#4 218910324#0 218910324#1 218910324#2 218910324#3 -381458593 -381458583#2"/>
    </vehicle>
    <vehicle id="15" type="passenger" depart="26.77">
        <route edges="-519097167#0 519097166#0 519097168#1 519097168#2 519097168#4 -218960891#4 -218960891#3 -218960891#2 -218960891#1"/>
    </vehicle>
    <vehicle id="16" type="passenger" depart="28.56">
        <route edges="-420314177 -381458603#0 218681380#1 381458608#0 -420187962#1 -381458603#1 420314177"/>
    </vehicle>
    <vehicle id="17" type="passenger" depart="30.34">
        <route edges="-381741948#1 381741932#1 381741964#2 519097166#0 519097168#1 -920025287#4 -920025287#3 -381746313"/>
    </vehicle>
    <vehicle id="18" type="passenger" depart="32.13">
        <route edges="381746310 -381741957#1 -381741957#0"/>
    </vehicle>
    <vehicle id="19" type="passenger" depart="33.91">
        <route edges="-381458583#3 381458593 -218910324#3 -519097167#1 -519097167#0 -381741964#2 -381741964#1"/>
    </vehicle>
    <vehicle id="20" type="passenger" depart="35.70">
        <route edges="381741948#1 -381741961#0 519097168#0 519097168#1 519097168#2 519097168#4 -218960891#4 -218960891#3 -218960891#2 -218960891#1"/>
    </vehicle>
    <vehicle id="21" type="passenger" depart="37.48">
        <route edges="-381746321#1 -381746321#0 -381746304#1 -381746304#0 920025287#4 519097168#2 519097168#4 218910324#0 218910324#1 218910324#2 218910324#3 -381458593"/>
    </vehicle>
    <vehicle id="22" type="passenger" depart="39.27">
        <route edges="381458593 -218910324#3 -218910324#2 -218910324#1 -420187962#3"/>
    </vehicle>
    <vehicle id="23" type="passenger" depart="41.05">
        <route edges="381746304#1 381746304#2 -381746317#1 -381746321#0 -381746304#1 -381746304#0 920025287#4 519097168#2 519097168#4 -218681380#4 -218681380#2 381452100"/>
    </vehicle>
    <vehicle id="24" type="passenger" depart="42.84">
        <route edges="381458608#0 420187962#2 420187962#3 218910324#1 218910324#2 218910324#3 -381741929#2"/>
    </vehicle>
    <vehicle id="25" type="passenger" depart="44.62">
        <route edges="381458583#0 420187962#3 -218910324#0 -218960891#4 -218960891#3 -218960891#2 -218960891#1"/>
    </vehicle>
    <vehicle id="26" type="passenger" depart="46.41">
        <route edges="-381458583#1 -381458583#0 -218681380#2 381458608#0 420187962#2"/>
    </vehicle>
    <vehicle id="27" type="passenger" depart="48.19">
        <route edges="-381741939 381741958#2 381741929#1 381741929#2 -218910324#3 -218910324#2 -218910324#1 -218910324#0 -218681380#4 -218681380#2 -218681380#1 -218681380#0"/>
    </vehicle>
    <vehicle id="28" type="passenger" depart="49.98">
        <route edges="381741961#1 519097167#0 519097167#1 218910324#3 -381741929#2 -381741929#1 -381741958#2 -381741937"/>
    </vehicle>
    <vehicle id="29" type="passenger" depart="51.76">
        <route edges="-381746325#1 -381746325#0 218960891#1 218960891#2 218960891#3 913717725 381458583#0"/>
    </vehicle>
    <vehicle id="30" type="passenger" depart="53.55">
        <route edges="913718470 519097168#4 -218681380#4"/>
    </vehicle>
    <vehicle id="31" type="passenger" depart="55.33">
        <route edges="381741932#4 -218910324#3 -218910324#2 -218910324#1"/>
    </vehicle>
    <vehicle id="32" type="passenger" depart="57.12">
        <route edges="381746310 381741932#0 381741932#1 381741932#2 381741932#3 381741932#4 -218910324#3 -218910324#2 -218910324#1 -420187962#3"/>
    </vehicle>
    <vehicle id="33" type="passenger" depart="58.90">
        <route edges="-381452100 218681380#2 218681380#4 218910324#0 218910324#1 218910324#2 -519097167#1"/>
    </vehicle>
    <vehicle id="34" type="passenger" depart="60.69">
        <route edges="381741932#4 -381458593 -381458583#2 -381458608#1"/>
    </vehicle>
    <vehicle id="35" type="passenger" depart="62.47">
        <route edges="-519097168#2 -519097168#1 -458731949 -218910324#1 -218910324#0 -218960891#4 -218960891#3 381746308"/>
    </vehicle>
    <vehicle id="36" type="passenger" depart="64.26">
        <route edges="381746325#1 -920025286 920025287#0 920025287#1 920025287#2 920025287#3 920025287#4 -519097168#1 -519097168#0 381741961#0 381741961#1"/>
    </vehicle>
    <vehicle id="37" type="passenger" depart="66.04">
        <route edges="-381741925 381741932#3 381741927 -519097167#0"/>
    </vehicle>
    <vehicle id="38" type="passenger" depart="67.83">
        <route edges="-420103660 -381746325#1 -381746325#0 218960891#1 218960891#2 218960891#3 218960891#4 218910324#0 -420187962#3 -420187962#2 -381458608#0"/>
    </vehicle>
    <vehicle id="39" type="passenger" depart="69.61">
        <route edges="920025287#3 920025287#4 -519097168#1 -519097166#0"/>
    </vehicle>
    <vehicle id="40" type="passenger" depart="71.40">
        <route edges="381741964#2 519097167#0 519097167#1"/>
    </vehicle>
    <vehicle id="41" type="passenger" depart="73.18">
        <route edges="-381746304#2 -381746304#1 -381746304#0 920025287#4 519097168#2 519097168#4 218910324#0 218910324#1 218910324#2 -519097167#1"/>
    </vehicle>
    <vehicle id="42" type="passenger" depart="74.97">
        <route edges="-413106892 381746310 381741932#0 381741932#1 381741964#2 519097166#0 519097168#1 519097168#2 519097168#4 -218960891#4 -218960891#3 -218960891#2 375125202 920025286 -381746325#1 -381746325#0 218960891#1 218960891#2 218960891#3 218960891#4"/>
    </vehicle>
    <vehicle id="43" type="passenger" depart="76.75">
        <route edges="-381746304#1 -381746304#0 920025287#4 -519097168#1 -519097166#0 519097167#0 519097167#1"/>
    </vehicle>
    <vehicle id="44" type="passenger" depart="78.54">
        <route edges="-420187962#3 -381458583#0 218681380#4 -519097168#4 -519097168#2 -519097168#1 -519097166#0 519097167#0"/>
    </vehicle>
    <vehicle id="45" type="passenger" depart="80.32">
        <route edges="788296730 381741927 -519097167#0 519097166#0 -519097168#0 -413106892 381746310 381741932#0"/>
    </vehicle>
    <vehicle id="46" type="passenger" depart="82.11">
        <route edges="97537672 413106892 519097168#0 519097168#1 519097168#2 519097168#4"/>
    </vehicle>
    <vehicle id="47" type="passenger" depart="83.89">
        <route edges="218910324#3 -381458593 -381458583#2 -381458583#1 -381458583#0 218681380#4 -218960891#4 -218960891#3 -218960891#2 -218960891#1 -218960891#0"/>
    </vehicle>
    <vehicle id="48" type="passenger" depart="85.68">
        <route edges="381746304#2 -381746317#1 -381746321#0 -381746304#1 -381746303#1 -381746304#3"/>
    </vehicle>
    <vehicle id="49" type="passenger" depart="87.46">
        <route edges="117770556#1 920025287#0 920025287#1 920025287#2 920025287#3"/>
    </vehicle>
    <vehicle id="50" type="passenger" depart="89.25">
        <route edges="381741929#0 381741929#1 381741929#2 -218910324#3 -218910324#2 -218910324#1 913718470 -519097168#2 -519097168#1 -519097168#0 381741961#0"/>
    </vehicle>
    <vehicle id="51" type="passenger" depart="91.03">
        <route edges="-218681380#4 381458583#0 420187962#3 218910324#1 458731949 519097168#1"/>
    </vehicle>
    <vehicle id="52" type="passenger" depart="92.82">
        <route edges="381741934 381741929#2 -218910324#3 -519097167#1 -519097167#0 -381741961#1 -381741948#1 381741932#1 381741964#2"/>
    </vehicle>
    <vehicle id="53" type="passenger" depart="94.60">
        <route edges="381741961#1 519097166#0 519097168#1 519097168#2 519097168#4 -218960891#4"/>
    </vehicle>
    <vehicle id="54" type="passenger" depart="96.39">
        <route edges="-381746303#1 -381746304#3 -381746304#2 -381746304#1 -381746304#0 -920025287#3 -920025287#2 -920025287#1 -920025287#0 920025286 -381746325#1 -381746325#0 218960891#1 218960891#2"/>
    </vehicle>
    <vehicle id="55" type="passenger" depart="98.17">
        <route edges="381741929#0 381741929#1 381741929#2 -218910324#3 -519097167#1 -519097167#0 -381741961#1 -381741948#1 381741932#1 381741964#2"/>
    </vehicle>
    <vehicle id="56" type="passenger" depart="99.96">
        <route edges="-381741964#1 -381741925 381741932#3 381741932#4 -218910324#3 -218910324#2 -218910324#1 913718470 -519097168#2 -519097168#1 -519097168#0 -413106892"/>
    </vehicle>
    <vehicle id="57" type="passenger" depart="101.74">
        <route edges="-381741927 381741932#4 -218910324#3 -218910324#2 -218910324#1 -218910324#0 -218960891#4 913717725 218681380#4"/>
    </vehicle>
    <vehicle id="58" type="passenger" depart="103.53">
        <route edges="-381746304#3 -381746304#2 -381746304#1 -381746304#0 920025287#4 519097168#2 519097168#4 -218681380#4 -218681380#2 381458608#0 381458608#1"/>
    </vehicle>
    <vehicle id="59" type="passenger" depart="105.31">
        <route edges="-381746321#1 -381746321#0 -381746304#1 -381746304#0 920025287#4 519097168#2 519097168#4 218910324#0 -420187962#3 -420187962#2 -420187962#1 -381458603#1 -381458603#0"/>
    </vehicle>
    <vehicle id="60" type="passenger" depart="107.10">
        <route edges="-420187962#3 -381458583#0 218681380#4 -519097168#4 -519097168#2 -920025287#4 -920025287#3 -381746313"/>
    </vehicle>
    <vehicle id="61" type="passenger" depart="108.88">
        <route edges="-381746325#1 -381746325#0 218960891#1 218960891#2 218960891#3 218960891#4 -519097168#4 -519097168#2 -519097168#1 -519097168#0 -413106892 413106898 97537664#1-AddedOnRampEdge"/>
    </vehicle>
    <vehicle id="62" type="passenger" depart="110.67">
        <route edges="381741925 381741964#1 381741964#2 519097166#0 519097168#1 519097168#2 519097168#4 -218681380#4 -218681380#2 381458608#0 420187962#2"/>
    </vehicle>
    <vehicle id="63" type="passenger" depart="112.45">
        <route edges="381741932#3 381741932#4 -218910324#3 -218910324#2 -218910324#1 913718470 381746313 920025287#3 920025287#4"/>
    </vehicle>
    <vehicle id="64" type="passenger" depart="114.24">
        <route edges="218910324#3 -381458593 -381458583#2 -381458583#1 -381458583#0 218681380#4 -218960891#4 -218960891#3 -218960891#2 -218960891#1 381746325#0 117770556#1"/>
    </vehicle>
    <vehicle id="65" type="passenger" depart="116.02">
        <route edges="-381746317#1 -381746321#0 -381746304#1 -381746304#0 920025287#4 -519097168#1 -519097166#0 -381741964#2 -381741964#1 -381741964#0"/>
    </vehicle>
    <vehicle id="66" type="passenger" depart="117.81">
        <route edges="519097168#2 519097168#4 218910324#0 -420187962#3 -420187962#2 -420187962#1 -381458603#1 -381458603#0 218681380#1"/>
    </vehicle>
    <vehicle id="67" type="passenger" depart="119.59">
        <route edges="381741934 381741929#2 -218910324#3 -218910324#2 -218910324#1 913718470 -519097168#2 -519097168#1 -519097168#0 -413106892 381746310 -381741957#1 781179155"/>
    </vehicle>
    <vehicle id="68" type="passenger" depart="121.38">
        <route edges="218960891#4 218910324#0 218910324#1 218910324#2 218910324#3 -381741929#2 -381741934"/>
    </vehicle>
    <vehicle id="69" type="passenger" depart="123.16">
        <route edges="381741961#0 381741961#1 519097166#0 519097168#1 519097168#2 519097168#4 -218960891#4 381746315"/>
    </vehicle>
    <vehicle id="70" type="passenger" depart="124.95">
        <route edges="913717725 218681380#4 -519097168#4 381746313 -913722640"/>
    </vehicle>
    <vehicle id="71" type="passenger" depart="126.73">
        <route edges="-381458603#0 218681380#1 218681380#2 218681380#4 -519097168#4 -519097168#2 -519097168#1 -519097166#0 -381741964#2 381741932#2 381741932#3"/>
    </vehicle>
    <vehicle id="72" type="passenger" depart="128.52">
        <route edges="381746315 920025287#2 920025287#3 920025287#4 -519097168#1 -519097166#0 519097167#0 519097167#1 -218910324#2"/>
    </vehicle>
    <vehicle id="73" type="passenger" depart="130.30">
        <route edges="-218960891#2 375125202 920025287#0 920025287#1 920025287#2 -381746313 519097168#4 -218681380#4 -218681380#2 -218681380#1 381458603#0 381458603#1"/>
    </vehicle>
    <vehicle id="74" type="passenger" depart="132.09">
        <route edges="-381458583#2 -381458583#1 420187962#3 218910324#1 218910324#2 218910324#3"/>
    </vehicle>
    <vehicle id="75" type="passenger" depart="133.87">
        <route edges="-381458603#1 -381458603#0 218681380#1 218681380#2 381458583#0"/>
    </vehicle>
    <vehicle id="76" type="passenger" depart="135.66">
        <route edges="-381746321#0 -381746304#1 -381746304#0 920025287#4 519097168#2 519097168#4 218910324#0 -420187962#3 -420187962#2 -381458608#0 218681380#2"/>
    </vehicle>
    <vehicle id="77" type="passenger" depart="137.44">
        <route edges="381741929#2 -218910324#3 -218910324#2 -218910324#1 913718470 -519097168#2 -519097168#1 -519097168#0 -413106892 381746310"/>
    </vehicle>
    <vehicle id="78" type="passenger" depart="139.23">
        <route edges="218681380#4 -519097168#4 -519097168#2 -519097168#1 -519097166#0 -381741964#2 -381741964#1 -381741925"/>
    </vehicle>
    <vehicle id="79" type="passenger" depart="141.01">
        <route edges="-420187962#3 -381458583#0 218681380#4 -519097168#4"/>
    </vehicle>
    <vehicle id="80" type="passenger" depart="142.80">
        <route edges="-458731949 -218910324#1 913718470 -519097168#2 -519097168#1 -519097168#0 -413106892 381746310 -381741957#1 -381741957#0"/>
    </vehicle>
    <vehicle id="81" type="passenger" depart="144.58">
        <route edges="920025287#4 519097168#2 519097168#4 218910324#0 -420187962#3 -420187962#2 -420187962#1"/>
    </vehicle>
    <vehicle id="82" type="passenger" depart="146.37">
        <route edges="-218681380#1 381458603#0 381458603#1 420187962#1 420187962#2 420187962#3 913718470 -519097168#2 -519097168#1 -519097166#0 -381741964#2 -381741964#1"/>
    </vehicle>
    <vehicle id="83" type="passenger" depart="148.15">
        <route edges="381746310 381741932#0 381741932#1 381741964#2 519097166#0 -519097168#0 381741961#0"/>
    </vehicle>
    <vehicle id="84" type="passenger" depart="149.94">
        <route edges="218910324#0 -420187962#3 381458583#1 381458583#2 381458593 -218910324#3"/>
    </vehicle>
    <vehicle id="85" type="passenger" depart="151.72">
        <route edges="-420314177 -381458603#0 218681380#1 218681380#2 218681380#4 218910324#0 218910324#1 458731949 519097168#1"/>
    </vehicle>
    <vehicle id="86" type="passenger" depart="153.51">
        <route edges="-381458608#0 218681380#2 218681380#4 218910324#0 -420187962#3 -381458583#0"/>
    </vehicle>
    <vehicle id="87" type="passenger" depart="155.29">
        <route edges="218681380#1 218681380#2 218681380#4 218910324#0 913718470 519097168#4 -218681380#4"/>
    </vehicle>
    <vehicle id="88" type="passenger" depart="157.08">
        <route edges="519097168#4 -218960891#4 -218960891#3 -218960891#2 -218960891#1 381746325#0 381746325#1"/>
    </vehicle>
    <vehicle id="89" type="passenger" depart="158.86">
        <route edges="-381741927 381741932#4 -218910324#3 -218910324#2 -218910324#1 -218910324#0 -218681380#4 -218681380#2 -218681380#1 381458603#0 420314177"/>
    </vehicle>
    <vehicle id="90" type="passenger" depart="160.65">
        <route edges="920025287#3 381746304#0 381746304#1 381746304#2"/>
    </vehicle>
    <vehicle id="91" type="passenger" depart="162.43">
        <route edges="381746310 381741932#0 381741932#1 381741932#2 381741932#3 381741932#4 -218910324#3 -218910324#2 -218910324#1 -420187962#3 -420187962#2 -420187962#1 -381458603#1 -381458603#0"/>
    </vehicle>
    <vehicle id="92" type="passenger" depart="164.22">
        <route edges="-381746304#1 -381746304#0 920025287#4 519097168#2 519097168#4 -218960891#4 -218960891#3 -218960891#2 -218960891#1 381746325#0 117770556#1"/>
    </vehicle>
    <vehicle id="93" type="passenger" depart="166.00">
        <route edges="-519097168#4 -519097168#2 -519097168#1 -519097166#0 -381741964#2 381741932#2 381741932#3 381741927"/>
    </vehicle>
    <vehicle id="94" type="passenger" depart="167.78">
        <route edges="-920025286 920025287#0 920025287#1 920025287#2"/>
    </vehicle>
    <vehicle id="95" type="passenger" depart="169.57">
        <route edges="-420187962#2 -420187962#1 -381458603#1 -381458603#0 218681380#1 381458608#0 420187962#2"/>
    </vehicle>
    <vehicle id="96" type="passenger" depart="171.35">
        <route edges="519097166#0 -519097168#0 -413106892 381746310 381741932#0 381741932#1 381741932#2 381741925"/>
    </vehicle>
    <vehicle id="97" type="passenger" depart="173.14">
        <route edges="-218960891#3 -218960891#2 375125202 920025287#0 920025287#1 920025287#2 -381746313 519097168#4 -218960891#4 913717725"/>
    </vehicle>
    <vehicle id="98" type="passenger" depart="174.92">
        <route edges="420187962#2 420187962#3 218910324#1 218910324#2 218910324#3 -381741929#2 -381741929#1 -381741958#2 -381741937"/>
    </vehicle>
    <vehicle id="99" type="passenger" depart="176.71">
        <route edges="-218910324#2 -218910324#1 -218910324#0 -218681380#4 381458583#0 420187962#3"/>
    </vehicle>
    <vehicle id="100" type="passenger" depart="178.49">
        <route edges="788296730 381741932#4 -218910324#3 -218910324#2 -218910324#1 -420187962#3 -420187962#2 -420187962#1"/>
    </vehicle>
    <vehicle id="101" type="passenger" depart="180.28">
        <route edges="-519097167#0 519097166#0 -519097168#0 381741961#0 381741961#1"/>
    </vehicle>
    <vehicle id="102" type="passenger" depart="182.06">
        <route edges="381741964#2 519097166#0 519097168#1 -920025287#4 381746304#0 381746304#1 381746321#0 381746317#1 -381746304#2"/>
    </vehicle>
    <vehicle id="103" type="passenger" depart="183.85">
        <route edges="-218960891#1 381746325#0 117770556#1 920025287#0 920025287#1 920025287#2 -381746313 519097168#4 218910324#0 -420187962#3 -420187962#2 -420187962#1 -381458603#1"/>
    </vehicle>
    <vehicle id="104" type="passenger" depart="185.63">
        <route edges="-381746317#1 -381746321#0 -381746304#1 -381746304#0 920025287#4 519097168#2 519097168#4 -218681380#4"/>
    </vehicle>
    <vehicle id="105" type="passenger" depart="187.42">
        <route edges="381741964#2 519097166#0 -458731949 218910324#2 -519097167#1 -519097167#0"/>
    </vehicle>
    <vehicle id="106" type="passenger" depart="189.20">
        <route edges="375125202 920025287#0 920025287#1 920025287#2 920025287#3 920025287#4 -519097168#1 -519097166#0 -381741964#2"/>
    </vehicle>
    <vehicle id="107" type="passenger" depart="190.99">
        <route edges="-519097168#1 -519097168#0 -413106892 381746310 381741932#0 381741948#1"/>
    </vehicle>
    <vehicle id="108" type="passenger" depart="192.77">
        <route edges="519097167#0 519097167#1 -218910324#2 -218910324#1 -218910324#0 -218960891#4 -218960891#3 -218960891#2 -218960891#1 381746325#0 381746325#1"/>
    </vehicle>
    <vehicle id="109" type="passenger" depart="194.56">
        <route edges="218960891#1 218960891#2 218960891#3 218960891#4 -519097168#4 -519097168#2 -519097168#1 -519097168#0 -413106892 413106898"/>
    </vehicle>
    <vehicle id="110" type="passenger" depart="196.34">
        <route edges="-381746325#1 -381746325#0 218960891#1 218960891#2 218960891#3 913717725 -218681380#2 381458608#0"/>
    </vehicle>
    <vehicle id="111" type="passenger" depart="198.13">
        <route edges="-381746321#1 -381746321#0 -381746304#1 -381746304#0 920025287#4 -519097168#1 -519097166#0 519097167#0"/>
    </vehicle>
    <vehicle id="112" type="passenger" depart="199.91">
        <route edges="-519097168#4 -519097168#2 -519097168#1 -458731949 -218910324#1"/>
    </vehicle>
    <vehicle id="113" type="passenger" depart="201.70">
        <route edges="381746310 381741932#0 381741948#1 381741961#1 519097167#0 -381741927"/>
    </vehicle>
    <vehicle id="114" type="passenger" depart="203.48">
        <route edges="420187962#2 420187962#3 -218910324#0 -218960891#4 -218960891#3 -218960891#2 -218960891#1 381746325#0 381746325#1"/>
    </vehicle>
    <vehicle id="115" type="passenger" depart="205.27">
        <route edges="-420103660 -381746325#1 -381746325#0 218960891#1 218960891#2 218960891#3 913717725 381458583#0 381458583#1 381458583#2 381458593 -218910324#3"/>
    </vehicle>
    <vehicle id="116" type="passenger" depart="207.05">
        <route edges="-218910324#2 -218910324#1 -218910324#0 -218960891#4 -218960891#3 -218960891#2 -218960891#1 381746325#0 381746325#1 -920025286"/>
    </vehicle>
    <vehicle id="117" type="passenger" depart="208.84">
        <route edges="381741925 381741964#1 381741964#2 519097167#0 519097167#1 -218910324#2 -218910324#1"/>
    </vehicle>
    <vehicle id="118" type="passenger" depart="210.62">
        <route edges="381741948#1 -381741961#0 519097168#0 519097168#1 519097168#2 519097168#4 218910324#0 -420187962#3"/>
    </vehicle>
    <vehicle id="119" type="passenger" depart="212.41">
        <route edges="-381458608#0 218681380#2 381458583#0 -420187962#2 381458608#1"/>
    </vehicle>
    <vehicle id="120" type="passenger" depart="214.19">
        <route edges="117770556#0 -381746325#0 218960891#1 218960891#2 218960891#3 218960891#4 218910324#0 -420187962#3 -420187962#2"/>
    </vehicle>
    <vehicle id="121" type="passenger" depart="215.98">
        <route edges="920025286 -381746325#1 -381746325#0 218960891#1 218960891#2 218960891#3 913717725 381458583#0"/>
    </vehicle>
    <vehicle id="122" type="passenger" depart="217.76">
        <route edges="-519097168#0 381741961#0 381741961#1 519097166#0 519097168#1 519097168#2 519097168#4 -218960891#4 -218960891#3 -218960891#2 375125202 920025286 -381746325#1 -381746325#0 218960891#1 218960891#2"/>
    </vehicle>
    <vehicle id="123" type="passenger" depart="219.55">
        <route edges="913718470 519097168#4 218910324#0 218910324#1 218910324#2 218910324#3 -381741929#2 -381741929#1"/>
    </vehicle>
    <vehicle id="124" type="passenger" depart="221.33">
        <route edges="381741957#1 381741932#0 381741932#1 381741964#2 519097166#0 519097168#1 519097168#2 519097168#4 -218960891#4 -218960891#3 -218960891#2 375125202 920025286"/>
    </vehicle>
    <vehicle id="125" type="passenger" depart="223.12">
        <route edges="381741948#0 381741932#1 381741932#2 381741932#3 381741932#4 -381458593 -381458583#2"/>
    </vehicle>
    <vehicle id="126" type="passenger" depart="224.90">
        <route edges="381746317#0 381746317#1 -381746304#2 -381746304#1 -381746304#0 920025287#4 519097168#2 519097168#4 218910324#0 218910324#1 218910324#2 218910324#3"/>
    </vehicle>
    <vehicle id="127" type="passenger" depart="226.69">
        <route edges="519097166#0 -519097168#0 -413106892 381746310 381741932#0 381741932#1 381741932#2 381741925 381741964#1"/>
    </vehicle>
    <vehicle id="128" type="passenger" depart="228.47">
        <route edges="920025286 -381746325#1 -381746325#0 218960891#1 218960891#2 218960891#3 218960891#4 218910324#0 218910324#1 218910324#2 -519097167#1 -381741927"/>
    </vehicle>
    <vehicle id="129" type="passenger" depart="230.26">
        <route edges="97537672 413106892 519097168#0 519097168#1 519097168#2 519097168#4 -218681380#4 -218681380#2 381458608#0 420187962#2"/>
    </vehicle>
    <vehicle id="130" type="passenger" depart="232.04">
        <route edges="-519097167#0 519097166#0 519097168#1 519097168#2 519097168#4 -218960891#4 -218960891#3 -218960891#2 375125202 920025286 -381746325#1 -381746325#0 218960891#1"/>
    </vehicle>
    <vehicle id="131" type="passenger" depart="233.83">
        <route edges="420101309 381741964#1 381741964#2 519097166#0 519097168#1 -920025287#4 381746304#0"/>
    </vehicle>
    <vehicle id="132" type="passenger" depart="235.61">
        <route edges="218960891#1 218960891#2 218960891#3 218960891#4 -519097168#4 -519097168#2 -519097168#1 -519097168#0 381741961#0 -381741948#1"/>
    </vehicle>
    <vehicle id="133" type="passenger" depart="237.40">
        <route edges="218960891#0 218960891#1 218960891#2 218960891#3 218960891#4 218910324#0 913718470 519097168#4"/>
    </vehicle>
    <vehicle id="134" type="passenger" depart="239.18">
        <route edges="519097166#0 -519097168#0 381741961#0 381741961#1 -381741964#2 -381741964#1"/>
    </vehicle>
    <vehicle id="135" type="passenger" depart="240.97">
        <route edges="-218910324#5 -218910324#4 -218910324#3 -218910324#2 -218910324#1 913718470 381746313 -913722640"/>
    </vehicle>
    <vehicle id="136" type="passenger" depart="242.75">
        <route edges="381741929#0 381741929#1 381741929#2 -218910324#3 -218910324#2 -218910324#1 913718470 -519097168#2 -519097168#1 -519097168#0 -413106892 381746310 -381741957#1 781179155"/>
    </vehicle>
    <vehicle id="137" type="passenger" depart="244.54">
        <route edges="519097168#4 -218960891#4 -218960891#3 -218960891#2 375125202 920025286 -381746325#1 -381746325#0 218960891#1 218960891#2 218960891#3 218960891#4"/>
    </vehicle>
    <vehicle id="138" type="passenger" depart="246.32">
        <route edges="-381746321#0 -381746304#1 -381746304#0 920025287#4 519097168#2 381746313"/>
    </vehicle>
    <vehicle id="139" type="passenger" depart="248.11">
        <route edges="381458603#0 381458603#1 420187962#1 420187962#2 -381458583#0"/>
    </vehicle>
    <vehicle id="140" type="passenger" depart="249.89">
        <route edges="218681380#1 218681380#2 218681380#4 -218960891#4 913717725 -218681380#2 -218681380#1 381458603#0"/>
    </vehicle>
    <vehicle id="141" type="passenger" depart="251.68">