<?xml version="1.0" encoding="UTF-8"?>

<!-- generated on 2026-04-15T03:10:05.106364+09:00 by Eclipse SUMO netconvert 1.26.0
<netconvertConfiguration xmlns:xsi="http://www.w3.org/2001/XMLSchema-instance" xsi:noNamespaceSchemaLocation="http://sumo.dlr.de/xsd/netconvertConfiguration.xsd">

    <input>
        <osm-files value="/Users/junlee/Desktop/2026-1/js/result/report_top12_seed4_2h/sumo_nets/cw_6428/map.osm"/>
    </input>

    <output>
        <output-file value="/Users/junlee/Desktop/2026-1/js/result/report_top12_seed4_2h/sumo_nets/cw_6428/network.net.xml"/>
    </output>

    <projection>
        <proj.utm value="true"/>
    </projection>

    <processing>
        <geometry.remove value="true"/>
        <roundabouts.guess value="true"/>
    </processing>

    <tls_building>
        <tls.guess value="true"/>
        <tls.guess-signals value="true"/>
    </tls_building>

    <ramp_guessing>
        <ramps.guess value="true"/>
    </ramp_guessing>

    <edge_removal>
        <keep-edges.by-vclass value="passenger,pedestrian"/>
    </edge_removal>

    <junctions>
        <no-turnarounds value="true"/>
        <junctions.join value="true"/>
    </junctions>

    <pedestrian>
        <sidewalks.guess value="true"/>
        <sidewalks.guess.max-speed value="13.89"/>
        <crossings.guess value="true"/>
    </pedestrian>

    <report>
        <verbose value="true"/>
    </report>

</netconvertConfiguration>
-->

<net version="1.20" junctionCornerDetail="5" walkingareas="true" limitTurnSpeed="5.50" xmlns:xsi="http://www.w3.org/2001/XMLSchema-instance" xsi:noNamespaceSchemaLocation="http://sumo.dlr.de/xsd/net_file.xsd">

    <location netOffset="-321282.22,-4157411.59" convBoundary="0.00,0.00,1025.89,1474.52" origBoundary="126.976693,37.546533,126.988189,37.559753" projParameter="+proj=utm +zone=52 +ellps=WGS84 +datum=WGS84 +units=m +no_defs"/>

    <type id="highway.footway" priority="1" numLanes="1" speed="2.78" allow="pedestrian" oneway="1" width="2.00"/>
    <type id="highway.path" priority="1" numLanes="1" speed="5.56" allow="pedestrian bicycle" oneway="0" width="2.00"/>
    <type id="highway.pedestrian" priority="1" numLanes="1" speed="2.78" allow="pedestrian" oneway="1" width="2.00"/>
    <type id="highway.residential" priority="3" numLanes="1" speed="13.89" disallow="tram rail_urban rail rail_electric rail_fast ship container cable_car subway aircraft wheelchair scooter drone" oneway="0"/>
    <type id="highway.secondary" priority="11" numLanes="1" speed="27.78" disallow="tram rail_urban rail rail_electric rail_fast ship container cable_car subway aircraft wheelchair scooter drone" oneway="0"/>
    <type id="highway.secondary_link" priority="6" numLanes="1" speed="22.22" disallow="tram rail_urban rail rail_electric rail_fast ship container cable_car subway aircraft wheelchair scooter drone" oneway="0"/>
    <type id="highway.service" priority="1" numLanes="1" speed="5.56" allow="pedestrian delivery bicycle" oneway="0"/>
    <type id="highway.steps" priority="1" numLanes="1" speed="1.39" allow="pedestrian" oneway="1" width="2.00"/>
    <type id="highway.tertiary" priority="10" numLanes="1" speed="22.22" disallow="tram rail_urban rail rail_electric rail_fast ship container cable_car subway aircraft wheelchair scooter drone" oneway="0"/>

    <edge id=":10253014017_w0" function="walkingarea">
        <lane id=":10253014017_w0_0" index="0" allow="pedestrian" speed="2.78" length="4.02" width="2.00" shape="276.69,855.22 278.44,854.24 278.17,853.43 278.21,853.07 278.37,852.75 278.63,852.46 279.01,852.20 278.03,850.45 277.19,850.74 276.82,850.70 276.50,850.54 276.23,850.27 275.99,849.88 274.25,850.85"/>
    </edge>
    <edge id=":10253014030_w0" function="walkingarea">
        <lane id=":10253014030_w0_0" index="0" allow="pedestrian" speed="2.78" length="3.66" width="2.00" shape="380.77,920.27 380.70,918.27 375.67,918.45 375.74,920.44 376.55,920.58 376.81,920.78 376.98,921.06 377.06,921.43 377.04,921.88 379.02,922.15 379.32,921.13 379.58,920.76 379.91,920.50 380.30,920.34"/>
    </edge>
    <edge id=":10253014031_0" function="internal">
        <lane id=":10253014031_0_0" index="0" disallow="tram rail_urban rail rail_electric rail_fast ship container cable_car subway aircraft wheelchair scooter drone" speed="27.78" length="5.95" shape="374.83,925.55 376.62,925.51 377.84,924.70 379.06,923.89 380.85,923.85"/>
        <lane id=":10253014031_0_1" index="1" disallow="tram rail_urban rail rail_electric rail_fast ship container cable_car subway aircraft wheelchair scooter drone" speed="27.78" length="5.95" shape="374.83,925.55 380.03,926.94"/>
    </edge>
    <edge id=":10253014031_w0" function="walkingarea">
        <lane id=":10253014031_w0_0" index="0" allow="pedestrian" speed="2.78" length="5.86" width="3.20" shape="379.61,928.49 381.27,922.30 380.07,921.81 379.68,921.49 379.41,921.12 379.28,920.70 379.28,920.23 377.30,919.96 376.80,922.38 376.48,923.19 376.12,923.73 375.70,924.00 375.24,924.00 374.42,927.10 375.39,927.55 375.70,927.88 375.90,928.27 375.98,928.73 375.95,929.26 377.92,929.58 378.22,928.80 378.47,928.56 378.78,928.43 379.16,928.41"/>
    </edge>
    <edge id=":10253014033_0" function="internal">
        <lane id=":10253014033_0_0" index="0" disallow="tram rail_urban rail rail_electric rail_fast ship container cable_car subway aircraft wheelchair scooter drone" speed="27.78" length="5.26" shape="352.75,979.07 348.48,982.15"/>
    </edge>
    <edge id=":10253014033_w0" function="walkingarea">
        <lane id=":10253014033_w0_0" index="0" allow="pedestrian" speed="2.78" length="4.72" width="3.20" shape="351.66,983.67 353.34,982.58 352.99,981.74 352.99,981.36 353.10,981.00 353.34,980.67 353.68,980.37 351.81,977.77 350.88,978.19 350.42,978.21 349.95,978.09 349.49,977.86 349.03,977.49 347.66,978.95 348.14,979.62 348.18,979.94 348.10,980.25 347.89,980.55 347.54,980.85 349.42,983.45 350.30,983.01 350.69,982.99 351.05,983.09 351.37,983.32"/>
    </edge>
    <edge id=":10253014042_w0" function="walkingarea">
        <lane id=":10253014042_w0_0" index="0" allow="pedestrian" speed="2.78" length="4.05" width="2.00" shape="378.09,937.44 378.48,935.48 377.69,935.14 377.44,934.87 377.29,934.52 377.23,934.10 377.27,933.61 375.29,933.29 375.00,934.07 374.75,934.31 374.43,934.46 374.04,934.50 373.59,934.43 373.15,936.38"/>
    </edge>
    <edge id=":10253014044_w0" function="walkingarea">
        <lane id=":10253014044_w0_0" index="0" allow="pedestrian" speed="2.78" length="3.75" width="2.00" shape="449.39,918.33 451.18,917.44 450.31,915.70 449.98,915.11 449.63,914.52 449.18,913.83 448.56,912.89 446.90,914.00 447.21,914.77 447.18,915.11 447.04,915.42 446.78,915.69 446.39,915.94 447.32,917.71 448.17,917.46 448.54,917.50 448.86,917.66 449.14,917.94"/>
    </edge>
    <edge id=":10253014059_0" function="internal">
        <lane id=":10253014059_0_0" index="0" disallow="tram rail_urban rail rail_electric rail_fast ship container cable_car subway aircraft wheelchair scooter drone" speed="27.78" length="6.27" shape="256.95,834.64 257.28,836.32 256.74,837.63 256.19,838.95 256.52,840.63"/>
    </edge>
    <edge id=":10253014059_w0" function="walkingarea">
        <lane id=":10253014059_w0_0" index="0" allow="pedestrian" speed="2.78" length="6.18" width="3.20" shape="255.11,841.38 257.93,839.87 257.98,838.86 258.41,838.28 259.12,837.65 260.09,836.98 261.34,836.26 260.39,834.50 259.58,834.75 259.22,834.70 258.90,834.54 258.62,834.27 258.36,833.89 252.72,836.90 252.98,837.76 252.93,838.14 252.77,838.49 252.49,838.81 252.09,839.10 253.11,840.82 253.91,840.54 254.26,840.58 254.57,840.73 254.86,841.00"/>
    </edge>
    <edge id=":10883946376_w0" function="walkingarea">
        <lane id=":10883946376_w0_0" index="0" allow="pedestrian" speed="2.78" length="3.20" width="6.40" shape="553.24,972.96 550.12,972.26 556.36,973.66 553.24,972.96"/>
    </edge>
    <edge id=":10883946389_0" function="internal">
        <lane id=":10883946389_0_0" index="0" allow="pedestrian delivery bicycle" speed="6.53" length="7.23" shape="548.78,885.79 547.58,885.70 546.22,886.29 544.72,887.57 543.07,889.54"/>
    </edge>
    <edge id=":10883946389_1" function="internal">
        <lane id=":10883946389_1_0" index="0" disallow="tram rail_urban rail rail_electric rail_fast ship container cable_car subway aircraft wheelchair scooter drone" speed="22.22" length="10.11" shape="548.78,885.79 545.97,884.82 543.96,884.37 541.90,884.09 538.95,883.61"/>
    </edge>
    <edge id=":10883946389_2" function="internal">
        <lane id=":10883946389_2_0" index="0" disallow="tram rail_urban rail rail_electric rail_fast ship container cable_car subway aircraft wheelchair scooter drone" speed="22.22" length="10.12" shape="539.54,880.47 542.50,880.94 544.57,881.20 546.59,881.63 549.40,882.60"/>
    </edge>
    <edge id=":10883946389_3" function="internal">
        <lane id=":10883946389_3_0" index="0" allow="pedestrian delivery bicycle" speed="6.67" length="3.80" shape="539.54,880.47 543.14,881.68"/>
    </edge>
    <edge id=":10883946389_6" function="internal">
        <lane id=":10883946389_6_0" index="0" allow="pedestrian delivery bicycle" speed="6.67" length="9.03" shape="543.14,881.68 544.93,883.60 544.91,886.21 543.07,889.54"/>
    </edge>
    <edge id=":10883946389_4" function="internal">
        <lane id=":10883946389_4_0" index="0" allow="pedestrian delivery bicycle" speed="4.70" length="5.68" shape="540.51,887.63 541.32,886.16 541.33,885.00 540.54,884.15 538.95,883.61"/>
    </edge>
    <edge id=":10883946389_5" function="internal">
        <lane id=":10883946389_5_0" index="0" allow="pedestrian delivery bicycle" speed="7.88" length="10.92" shape="540.51,887.63 542.90,884.84 545.18,883.08 547.35,882.33 549.40,882.60"/>
    </edge>
    <edge id=":10883946389_w0" function="walkingarea">
        <lane id=":10883946389_w0_0" index="0" allow="pedestrian" speed="2.78" length="7.62" width="6.40" shape="548.47,887.39 549.71,881.00 547.69,880.27 546.16,879.85 544.87,879.62 543.56,879.46 541.97,879.26 539.84,878.90 538.65,885.19 539.36,885.48 539.53,885.70 539.56,885.97 539.46,886.29 539.22,886.67 544.35,890.49 546.02,888.53 546.74,887.89 547.39,887.49 547.97,887.32"/>
    </edge>
    <edge id=":11405764689_0" function="internal">
        <lane id=":11405764689_0_0" index="0" disallow="pedestrian tram rail_urban rail rail_electric rail_fast ship container cable_car subway aircraft wheelchair scooter drone" speed="13.89" length="5.65" shape="321.41,1137.29 315.77,1137.65"/>
    </edge>
    <edge id=":11405764689_1" function="internal">
        <lane id=":11405764689_1_0" index="0" disallow="pedestrian tram rail_urban rail rail_electric rail_fast ship container cable_car subway aircraft wheelchair scooter drone" speed="13.89" length="5.65" shape="315.57,1134.45 321.20,1134.09"/>
    </edge>
    <edge id=":11405764689_c0" function="crossing" crossingEdges="315658900#5 -315658900#5">
        <lane id=":11405764689_c0_0" index="0" allow="pedestrian" speed="2.78" length="6.40" width="4.00" shape="318.28,1132.68 318.69,1139.06" outlineShape="320.28,1132.55 320.69,1138.94 316.69,1139.19 316.29,1132.80 320.28,1132.55 321.10,1132.50 320.97,1130.50 315.34,1130.86 315.47,1132.86 316.29,1132.80"/>
    </edge>
    <edge id=":11405764689_w0" function="walkingarea">
        <lane id=":11405764689_w0_0" index="0" allow="pedestrian" speed="2.78" length="3.87" width="4.00" shape="315.87,1139.24 316.00,1141.24 319.56,1143.21 320.96,1141.78 321.64,1140.88 321.51,1138.88 320.69,1138.94 316.69,1139.19"/>
    </edge>
    <edge id=":11405764689_w1" function="walkingarea">
        <lane id=":11405764689_w1_0" index="0" allow="pedestrian" speed="2.78" length="3.88" width="4.00" shape="316.29,1132.80 320.28,1132.55 321.10,1132.50 320.97,1130.50 315.34,1130.86 315.47,1132.86"/>
    </edge>
    <edge id=":11405764693_w0" function="walkingarea">
        <lane id=":11405764693_w0_0" index="0" allow="pedestrian" speed="2.78" length="4.10" width="2.00" shape="347.84,1150.03 349.83,1149.87 349.93,1149.05 350.12,1148.78 350.39,1148.59 350.76,1148.49 351.21,1148.48 351.35,1146.48 346.22,1146.28 346.20,1148.28 347.05,1148.48 347.36,1148.72 347.60,1149.06 347.76,1149.50"/>
    </edge>
    <edge id=":11449715050_0" function="internal">
        <lane id=":11449715050_0_0" index="0" allow="delivery bicycle" speed="9.72" length="9.98" shape="282.07,1199.64 279.07,1199.40 276.84,1198.78 274.85,1198.71 272.59,1200.12"/>
    </edge>
    <edge id=":11449715050_1" function="internal">
        <lane id=":11449715050_1_0" index="0" allow="delivery bicycle" speed="7.85" length="16.89" shape="282.07,1199.64 277.81,1199.20 275.19,1197.12 274.22,1193.39 274.90,1188.02"/>
    </edge>
    <edge id=":11449715050_2" function="internal">
        <lane id=":11449715050_2_0" index="0" allow="delivery bicycle" speed="5.91" length="9.00" shape="277.57,1190.60 277.26,1193.32 277.87,1195.21 279.39,1196.25 281.83,1196.45"/>
    </edge>
    <edge id=":11449715050_3" function="internal">
        <lane id=":11449715050_3_0" index="0" disallow="pedestrian tram rail_urban rail rail_electric rail_fast ship container cable_car subway aircraft wheelchair scooter drone" speed="13.89" length="11.00" shape="277.57,1190.60 276.80,1193.77 276.06,1195.93 274.83,1197.80 272.59,1200.12"/>
    </edge>
    <edge id=":11449715050_4" function="internal">
        <lane id=":11449715050_4_0" index="0" disallow="pedestrian tram rail_urban rail rail_electric rail_fast ship container cable_car subway aircraft wheelchair scooter drone" speed="13.89" length="11.05" shape="270.38,1197.80 272.55,1195.44 273.62,1193.48 274.21,1191.24 274.90,1188.02"/>
    </edge>
    <edge id=":11449715050_5" function="internal">
        <lane id=":11449715050_5_0" index="0" allow="delivery bicycle" speed="9.72" length="3.16" shape="270.38,1197.80 273.04,1196.09"/>
    </edge>
    <edge id=":11449715050_6" function="internal">
        <lane id=":11449715050_6_0" index="0" allow="delivery bicycle" speed="9.72" length="8.88" shape="273.04,1196.09 273.23,1195.97 275.80,1195.77 278.52,1196.26 281.83,1196.45"/>
    </edge>
    <edge id=":11449715050_c0" function="crossing" crossingEdges="315658900#2 -315658900#2">
        <lane id=":11449715050_c0_0" index="0" allow="pedestrian" speed="2.78" length="6.67" width="4.00" shape="272.87,1189.59 278.65,1192.92" outlineShape="273.79,1187.81 279.65,1191.19 278.54,1193.43 278.13,1194.93 272.48,1191.67 273.87,1187.86 271.76,1185.69 271.31,1187.88 271.05,1189.58 270.77,1190.99 270.28,1192.27 269.39,1193.61 267.89,1195.20 269.27,1196.64 270.74,1195.13 271.66,1193.86 272.21,1192.67 272.48,1191.67"/>
    </edge>
    <edge id=":11449715050_w0" function="walkingarea">
        <lane id=":11449715050_w0_0" index="0" allow="pedestrian" speed="2.78" length="6.63" width="4.00" shape="273.69,1201.28 275.07,1202.72 282.19,1201.24 281.95,1198.05 281.71,1194.85 280.70,1192.94 278.76,1192.47 279.65,1191.19 278.54,1193.43 278.04,1195.27 277.47,1196.74 276.67,1198.08 275.46,1199.51"/>
    </edge>
    <edge id=":11449715050_w1" function="walkingarea">
        <lane id=":11449715050_w1_0" index="0" allow="pedestrian" speed="2.78" length="7.38" width="4.00" shape="273.87,1187.86 271.76,1185.69 271.31,1187.88 271.05,1189.58 270.77,1190.99 270.28,1192.27 269.39,1193.61 267.89,1195.20 267.89,1195.20 269.27,1196.64 270.74,1195.13 271.66,1193.86 272.21,1192.67 272.57,1191.36 272.89,1189.74"/>
    </edge>
    <edge id=":11449715052_0" function="internal">
        <lane id=":11449715052_0_0" index="0" allow="pedestrian delivery bicycle" speed="5.56" length="4.69" shape="344.23,1190.09 339.63,1191.01"/>
    </edge>
    <edge id=":11449715052_1" function="internal">
        <lane id=":11449715052_1_0" index="0" allow="pedestrian delivery bicycle" speed="5.56" length="4.90" shape="338.90,1187.89 343.70,1186.93"/>
    </edge>
    <edge id=":11449715052_w0" function="walkingarea">
        <lane id=":11449715052_w0_0" index="0" allow="pedestrian" speed="2.78" length="4.90" width="6.40" shape="344.49,1191.66 343.44,1185.35 342.58,1185.32 342.25,1185.17 341.99,1184.91 341.79,1184.56 341.65,1184.12 339.69,1184.52 339.70,1185.38 339.56,1185.71 339.31,1185.98 338.97,1186.19 338.54,1186.33 339.99,1192.57"/>
    </edge>
    <edge id=":11449715053_w0" function="walkingarea">
        <lane id=":11449715053_w0_0" index="0" allow="pedestrian" speed="2.78" length="4.64" width="6.40" shape="352.37,1182.52 350.37,1182.68 350.28,1183.54 350.09,1183.86 349.82,1184.12 349.46,1184.30 349.01,1184.42 350.07,1190.73 351.61,1189.60 352.09,1188.44 352.38,1186.87 352.47,1184.90"/>
    </edge>
    <edge id=":11449715117_w0" function="walkingarea">
        <lane id=":11449715117_w0_0" index="0" allow="pedestrian" speed="2.78" length="3.20" width="6.40" shape="312.97,1167.95 313.01,1171.15 312.93,1164.75 312.97,1167.95"/>
    </edge>
    <edge id=":11449716181_0" function="internal">
        <lane id=":11449716181_0_0" index="0" disallow="pedestrian tram rail_urban rail rail_electric rail_fast ship container cable_car subway aircraft wheelchair scooter drone" speed="13.89" length="5.20" shape="201.33,1183.88 197.52,1187.41"/>
    </edge>
    <edge id=":11449716181_1" function="internal">
        <lane id=":11449716181_1_0" index="0" disallow="pedestrian tram rail_urban rail rail_electric rail_fast ship container cable_car subway aircraft wheelchair scooter drone" speed="13.89" length="5.20" shape="195.34,1185.07 199.15,1181.53"/>
    </edge>
    <edge id=":11449716181_c0" function="crossing" crossingEdges="315658896#3 -315658896#3">
        <lane id=":11449716181_c0_0" index="0" allow="pedestrian" speed="2.78" length="6.40" width="4.00" shape="196.16,1182.13 200.51,1186.82" outlineShape="197.56,1180.69 202.05,1185.53 199.04,1188.18 194.69,1183.49"/>
    </edge>
    <edge id=":11449716181_w0" function="walkingarea">
        <lane id=":11449716181_w0_0" index="0" allow="pedestrian" speed="2.78" length="3.73" width="4.00" shape="198.60,1188.59 199.96,1190.05 203.30,1189.96 204.06,1188.11 203.78,1186.52 202.42,1185.05 201.98,1185.46 199.04,1188.18"/>
    </edge>
    <edge id=":11449716181_w1" function="walkingarea">
        <lane id=":11449716181_w1_0" index="0" allow="pedestrian" speed="2.78" length="3.59" width="4.00" shape="194.69,1183.49 197.63,1180.77 198.07,1180.36 196.71,1178.89 192.90,1182.43 194.25,1183.89"/>
    </edge>
    <edge id=":11449716186_0" function="internal">
        <lane id=":11449716186_0_0" index="0" disallow="pedestrian tram rail_urban rail rail_electric rail_fast ship container cable_car subway aircraft wheelchair scooter drone" speed="13.89" length="5.06" shape="266.84,1206.09 263.92,1210.22"/>
    </edge>
    <edge id=":11449716186_1" function="internal">
        <lane id=":11449716186_1_0" index="0" disallow="pedestrian tram rail_urban rail rail_electric rail_fast ship container cable_car subway aircraft wheelchair scooter drone" speed="13.89" length="5.07" shape="261.31,1208.38 264.23,1204.24"/>
    </edge>
    <edge id=":11449716186_c0" function="crossing" crossingEdges="315658900#1 -315658900#1">
        <lane id=":11449716186_c0_0" index="0" allow="pedestrian" speed="2.78" length="6.40" width="4.00" shape="261.46,1205.39 266.68,1209.08" outlineShape="262.53,1203.69 267.92,1207.50 265.53,1210.71 260.30,1207.02 262.61,1203.75 262.92,1203.32 261.29,1202.16 258.51,1202.69 257.82,1204.56 258.37,1206.31 260.00,1207.46 260.30,1207.02"/>
    </edge>
    <edge id=":11449716186_w0" function="walkingarea">
        <lane id=":11449716186_w0_0" index="0" allow="pedestrian" speed="2.78" length="3.50" width="4.00" shape="265.23,1211.15 266.87,1212.30 269.78,1208.17 268.15,1207.01 267.84,1207.45 265.53,1210.71"/>
    </edge>
    <edge id=":11449716186_w1" function="walkingarea">
        <lane id=":11449716186_w1_0" index="0" allow="pedestrian" speed="2.78" length="3.62" width="4.00" shape="260.30,1207.02 262.61,1203.75 262.92,1203.32 261.29,1202.16 258.51,1202.69 257.82,1204.56 258.37,1206.31 260.00,1207.46"/>
    </edge>
    <edge id=":11449716187_0" function="internal">
        <lane id=":11449716187_0_0" index="0" disallow="pedestrian tram rail_urban rail rail_electric rail_fast ship container cable_car subway aircraft wheelchair scooter drone" speed="13.89" length="5.00" shape="189.52,1194.82 185.85,1198.22"/>
    </edge>
    <edge id=":11449716187_1" function="internal">
        <lane id=":11449716187_1_0" index="0" disallow="pedestrian tram rail_urban rail rail_electric rail_fast ship container cable_car subway aircraft wheelchair scooter drone" speed="13.89" length="5.00" shape="183.68,1195.87 187.35,1192.47"/>
    </edge>
    <edge id=":11449716187_c0" function="crossing" crossingEdges="315658896#2 -315658896#2">
        <lane id=":11449716187_c0_0" index="0" allow="pedestrian" speed="2.78" length="6.40" width="4.00" shape="184.43,1193.00 188.78,1197.69" outlineShape="185.83,1191.56 190.31,1196.41 187.31,1199.05 182.96,1194.36 185.89,1191.64 186.26,1191.30 184.90,1189.83 181.23,1193.23 182.59,1194.70 182.96,1194.36"/>
    </edge>
    <edge id=":11449716187_w0" function="walkingarea">
        <lane id=":11449716187_w0_0" index="0" allow="pedestrian" speed="2.78" length="3.51" width="4.00" shape="186.94,1199.39 188.30,1200.86 190.36,1200.99 191.90,1199.71 191.97,1197.46 190.61,1195.99 190.24,1196.33 187.31,1199.05"/>
    </edge>
    <edge id=":11449716187_w1" function="walkingarea">
        <lane id=":11449716187_w1_0" index="0" allow="pedestrian" speed="2.78" length="3.46" width="4.00" shape="182.96,1194.36 185.89,1191.64 186.26,1191.30 184.90,1189.83 181.23,1193.23 182.59,1194.70"/>
    </edge>
    <edge id=":11449716195_0" function="internal">
        <lane id=":11449716195_0_0" index="0" disallow="pedestrian tram rail_urban rail rail_electric rail_fast ship container cable_car subway aircraft wheelchair scooter drone" speed="13.89" length="5.00" shape="177.83,1141.94 177.35,1146.91"/>
    </edge>
    <edge id=":11449716195_1" function="internal">
        <lane id=":11449716195_1_0" index="0" disallow="pedestrian tram rail_urban rail rail_electric rail_fast ship container cable_car subway aircraft wheelchair scooter drone" speed="13.89" length="5.00" shape="174.16,1146.61 174.64,1141.63"/>
    </edge>
    <edge id=":11449716195_c0" function="crossing" crossingEdges="-318747848#0 318747848#0">
        <lane id=":11449716195_c0_0" index="0" allow="pedestrian" speed="2.78" length="6.40" width="4.00" shape="172.81,1143.96 179.18,1144.58" outlineShape="173.00,1141.97 179.37,1142.59 178.99,1146.57 172.62,1145.95"/>
    </edge>
    <edge id=":11449716195_w0" function="walkingarea">
        <lane id=":11449716195_w0_0" index="0" allow="pedestrian" speed="2.78" length="3.46" width="4.00" shape="178.94,1147.07 180.93,1147.26 181.41,1142.28 179.42,1142.09 179.37,1142.59 178.99,1146.57"/>
    </edge>
    <edge id=":11449716195_w1" function="walkingarea">
        <lane id=":11449716195_w1_0" index="0" allow="pedestrian" speed="2.78" length="3.51" width="4.00" shape="172.62,1145.95 173.00,1141.97 173.05,1141.47 171.06,1141.28 169.43,1142.56 169.14,1144.54 170.58,1146.26 172.57,1146.45"/>
    </edge>
    <edge id=":13339918294_w0" function="walkingarea">
        <lane id=":13339918294_w0_0" index="0" allow="pedestrian" speed="2.78" length="0.10" width="3.20" shape="254.33,688.36 258.15,693.50"/>
    </edge>
    <edge id=":13339947003_0" function="internal">
        <lane id=":13339947003_0_0" index="0" disallow="tram rail_urban rail rail_electric rail_fast ship container cable_car subway aircraft wheelchair scooter drone" speed="9.69" length="5.17" shape="178.34,819.71 179.85,819.93 180.92,819.97 181.95,819.75 183.35,819.17"/>
    </edge>
    <edge id=":13339947003_w0" function="walkingarea">
        <lane id=":13339947003_w0_0" index="0" allow="pedestrian" speed="2.78" length="7.00" width="3.20" shape="187.62,818.95 187.97,815.26 186.71,814.47 184.62,812.22 184.50,814.27 183.96,815.89 182.99,817.07 181.61,817.82 179.80,818.12 177.57,817.98 177.10,821.15 179.39,821.41 181.11,821.42 182.53,821.19 183.91,820.70 185.52,819.95"/>
    </edge>
    <edge id=":13698591537_w0" function="walkingarea">
        <lane id=":13698591537_w0_0" index="0" allow="pedestrian" speed="2.78" length="3.20" width="6.40" shape="476.77,215.70 479.91,216.33 473.63,215.07 476.77,215.70"/>
    </edge>
    <edge id=":2457731028_w0" function="walkingarea">
        <lane id=":2457731028_w0_0" index="0" allow="pedestrian" speed="2.78" length="4.58" width="2.00" shape="338.03,858.84 338.84,857.01 338.22,856.59 338.14,856.37 338.20,856.15 338.42,855.92 338.78,855.68 337.82,853.93 336.41,854.52 335.82,854.61 335.31,854.56 334.87,854.37 334.52,854.05 332.96,855.31 333.39,856.09 333.44,856.48 333.38,856.87 333.22,857.26 332.96,857.64 334.49,858.92 335.33,858.38 335.88,858.30 336.51,858.35 337.23,858.53"/>
    </edge>
    <edge id=":2457731044_w0" function="walkingarea">
        <lane id=":2457731044_w0_0" index="0" allow="pedestrian" speed="2.78" length="4.27" width="2.00" shape="312.97,896.63 314.19,895.04 313.64,894.35 313.54,893.94 313.57,893.49 313.71,893.00 313.98,892.47 312.25,891.45 311.71,892.05 311.42,892.15 311.11,892.12 310.79,891.96 310.45,891.67 309.01,893.07 309.48,893.77 309.51,894.10 309.41,894.41 309.18,894.70 308.82,894.97 309.87,896.67 310.99,896.19 311.52,896.12 312.03,896.17 312.51,896.34"/>
    </edge>
    <edge id=":2457731057_w0" function="walkingarea">
        <lane id=":2457731057_w0_0" index="0" allow="pedestrian" speed="2.78" length="3.71" width="2.00" shape="214.22,919.56 216.19,919.18 216.23,918.28 216.43,917.89 216.74,917.55 217.17,917.24 217.72,916.98 216.97,915.12 216.17,915.27 215.87,915.17 215.63,914.96 215.46,914.64 215.36,914.20 213.38,914.49 213.34,915.36 213.18,915.67 212.92,915.88 212.56,916.00 212.11,916.04 212.07,918.04 213.14,918.22 213.54,918.44 213.86,918.73 214.08,919.10"/>
    </edge>
    <edge id=":2457731072_w0" function="walkingarea">
        <lane id=":2457731072_w0_0" index="0" allow="pedestrian" speed="2.78" length="3.14" width="2.00" shape="293.83,942.04 294.18,939.73 293.30,939.12 292.90,938.97 292.53,938.79 292.18,938.49 291.83,937.97 290.07,938.91 290.33,939.75 290.30,940.13 290.17,940.49 289.93,940.83 289.59,941.15 291.33,942.79 292.28,941.97 292.71,941.78 293.11,941.72 293.48,941.81"/>
    </edge>
    <edge id=":2457731125_0" function="internal">
        <lane id=":2457731125_0_0" index="0" disallow="tram rail_urban rail rail_electric rail_fast ship container cable_car subway aircraft wheelchair scooter drone" speed="27.78" length="0.42" shape="28.34,949.64 28.38,949.62 28.40,949.61 28.43,949.59 28.47,949.57"/>
        <lane id=":2457731125_0_1" index="1" disallow="tram rail_urban rail rail_electric rail_fast ship container cable_car subway aircraft wheelchair scooter drone" speed="27.78" length="0.42" shape="29.67,952.55 29.78,952.50 29.86,952.46 29.93,952.42 30.04,952.36"/>
        <lane id=":2457731125_0_2" index="2" disallow="tram rail_urban rail rail_electric rail_fast ship container cable_car subway aircraft wheelchair scooter drone" speed="27.78" length="0.42" shape="30.99,955.46 31.18,955.37 31.31,955.31 31.44,955.24 31.62,955.14"/>
    </edge>
    <edge id=":2457731125_w0" function="walkingarea">
        <lane id=":2457731125_w0_0" index="0" allow="pedestrian" speed="2.78" length="0.14" width="3.20" shape="32.41,956.53 27.68,948.18 31.66,956.92 31.94,956.78 32.04,956.74 32.14,956.68 32.26,956.62"/>
    </edge>
    <edge id=":2457731154_w0" function="walkingarea">
        <lane id=":2457731154_w0_0" index="0" allow="pedestrian" speed="2.78" length="6.52" width="2.00" shape="220.39,993.32 218.51,990.10 215.76,991.51 214.72,991.88 213.92,992.01 213.33,991.92 212.98,991.60 211.23,992.57 211.72,993.79 211.75,994.27 211.64,994.66 211.38,994.98 210.99,995.20 211.73,997.06 213.62,996.36 215.04,995.88 216.21,995.49 217.35,995.03 218.67,994.36"/>
    </edge>
    <edge id=":2509327429_0" function="internal">
        <lane id=":2509327429_0_0" index="0" disallow="pedestrian tram rail_urban rail rail_electric rail_fast ship container cable_car subway aircraft wheelchair scooter drone" speed="13.89" length="14.15" shape="434.34,1150.05 433.08,1164.14"/>
    </edge>
    <edge id=":2509327429_1" function="internal">
        <lane id=":2509327429_1_0" index="0" disallow="pedestrian tram rail_urban rail rail_electric rail_fast ship container cable_car subway aircraft wheelchair scooter drone" speed="7.97" length="3.96" shape="434.34,1150.05 433.36,1153.88"/>
    </edge>
    <edge id=":2509327429_6" function="internal">
        <lane id=":2509327429_6_0" index="0" disallow="pedestrian tram rail_urban rail rail_electric rail_fast ship container cable_car subway aircraft wheelchair scooter drone" speed="7.97" length="10.43" shape="433.36,1153.88 431.39,1156.45 428.42,1157.74 424.46,1157.77"/>
    </edge>
    <edge id=":2509327429_2" function="internal">
        <lane id=":2509327429_2_0" index="0" disallow="pedestrian tram rail_urban rail rail_electric rail_fast ship container cable_car subway aircraft wheelchair scooter drone" speed="6.48" length="9.13" shape="424.90,1154.60 427.41,1154.58 429.29,1153.76 430.54,1152.13 431.16,1149.70"/>
    </edge>
    <edge id=":2509327429_3" function="internal">
        <lane id=":2509327429_3_0" index="0" disallow="pedestrian tram rail_urban rail rail_electric rail_fast ship container cable_car subway aircraft wheelchair scooter drone" speed="8.18" length="14.13" shape="424.90,1154.60 428.69,1155.64 431.32,1157.58 432.79,1160.41 433.08,1164.14"/>
    </edge>
    <edge id=":2509327429_4" function="internal">
        <lane id=":2509327429_4_0" index="0" disallow="pedestrian tram rail_urban rail rail_electric rail_fast ship container cable_car subway aircraft wheelchair scooter drone" speed="6.72" length="5.01" shape="429.89,1163.92 429.69,1161.52 428.72,1159.70 428.28,1159.39"/>
    </edge>
    <edge id=":2509327429_5" function="internal">