<?xml version="1.0" encoding="UTF-8"?>

<!-- generated on 2026-04-17 02:58:49.776511 by Eclipse SUMO randomTrips.py v1.26.0
<configuration>
    <net-file value="/Users/junlee/Desktop/2026-1/js/result/tradeoff_pet_top12_seed12_60min_20260417_025716/sumo_nets/cw_8340/network.net.xml"/>
    <output-trip-file value="/Users/junlee/Desktop/2026-1/js/result/tradeoff_pet_top12_seed12_60min_20260417_025716/sumo_nets/cw_8340/routes_seed48.trips.xml"/>
    <route-file value="/Users/junlee/Desktop/2026-1/js/result/tradeoff_pet_top12_seed12_60min_20260417_025716/sumo_nets/cw_8340/routes_seed48.rou.xml"/>
    <vehicle-class value="passenger"/>
    <seed value="48"/>
    <period value="3.893645118227507"/>
</configuration>
-->

<routes xmlns:xsi="http://www.w3.org/2001/XMLSchema-instance" xsi:noNamespaceSchemaLocation="http://sumo.dlr.de/xsd/routes_file.xsd">
    <vType id="passenger" vClass="passenger"/>
    <trip id="0" depart="0.00" from="218681380#1" to="-381452118#1" type="passenger"/>
    <trip id="1" depart="3.89" from="381452126#1" to="-381458600" type="passenger"/>
    <trip id="2" depart="7.79" from="420317544#1" to="-381452126#0" type="passenger"/>
    <trip id="3" depart="11.68" from="381452165#2" to="-381452118#5" type="passenger"/>
    <trip id="4" depart="15.57" from="520307305#1" to="420187959#5" type="passenger"/>
    <trip id="5" depart="19.47" from="-381452098" to="381452118#2" type="passenger"/>
    <trip id="6" depart="23.36" from="-381452143#0" to="117914352#1" type="passenger"/>
    <trip id="7" depart="27.26" from="420187959#2" to="-381452118#4" type="passenger"/>
    <trip id="8" depart="31.15" from="-381452143#0" to="-239357573#2" type="passenger"/>
    <trip id="9" depart="35.04" from="-218681380#2" to="117914345#1" type="passenger"/>
    <trip id="10" depart="38.94" from="-381452118#4" to="-381452118#0" type="passenger"/>
    <trip id="11" depart="42.83" from="381452123#1" to="-381458592#2" type="passenger"/>
    <trip id="12" depart="46.72" from="-420187959#11" to="-420187959#2" type="passenger"/>
    <trip id="13" depart="50.62" from="381452118#1" to="420317544#1" type="passenger"/>
    <trip id="14" depart="54.51" from="239357573#1" to="-381458592#1" type="passenger"/>
    <trip id="15" depart="58.40" from="-381452118#0" to="381452118#2" type="passenger"/>
    <trip id="16" depart="62.30" from="-381452118#5" to="-420317540" type="passenger"/>
    <trip id="17" depart="66.19" from="381458600" to="381458581#1" type="passenger"/>
    <trip id="18" depart="70.09" from="-381458581#1" to="-381458592#2" type="passenger"/>
    <trip id="19" depart="73.98" from="-520307305#4" to="-381452108" type="passenger"/>
    <trip id="20" depart="77.87" from="-381452103#0" to="-381452118#3" type="passenger"/>
    <trip id="21" depart="81.77" from="-420187959#10" to="218681380#1" type="passenger"/>
    <trip id="22" depart="85.66" from="-420187959#1" to="-420317544#1" type="passenger"/>
    <trip id="23" depart="89.55" from="381452170#1" to="381452182" type="passenger"/>
    <trip id="24" depart="93.45" from="-420317540" to="420187959#6" type="passenger"/>
    <trip id="25" depart="97.34" from="-117914345#0" to="244215552#0" type="passenger"/>
    <trip id="26" depart="101.23" from="381452123#0" to="-420317543#0" type="passenger"/>
    <trip id="27" depart="105.13" from="-420317543#0" to="-381452170#1" type="passenger"/>
    <trip id="28" depart="109.02" from="381452170#0" to="-381452126#0" type="passenger"/>
    <trip id="29" depart="112.92" from="239357573#0" to="381452143#0" type="passenger"/>
    <trip id="30" depart="116.81" from="420187959#1" to="420317543#1" type="passenger"/>
    <trip id="31" depart="120.70" from="-381452118#4" to="-381452118#4" type="passenger"/>
    <trip id="32" depart="124.60" from="-381452182" to="420187959#10" type="passenger"/>
    <trip id="33" depart="128.49" from="239357573#2" to="381452165#0" type="passenger"/>
    <trip id="34" depart="132.38" from="-420317543#1" to="1279010544#0" type="passenger"/>
    <trip id="35" depart="136.28" from="-420317543#0" to="381452118#3" type="passenger"/>
    <trip id="36" depart="140.17" from="420187959#4" to="420187959#9" type="passenger"/>
    <trip id="37" depart="144.06" from="117914354" to="-218681380#1" type="passenger"/>
    <trip id="38" depart="147.96" from="-117914345#0" to="381452118#1" type="passenger"/>
    <trip id="39" depart="151.85" from="-420187959#4" to="-37928420" type="passenger"/>
    <trip id="40" depart="155.75" from="381458592#2" to="375125209" type="passenger"/>
    <trip id="41" depart="159.64" from="117914345#0" to="420187959#12" type="passenger"/>
    <trip id="42" depart="163.53" from="239357573#2" to="-520307305#4" type="passenger"/>
    <trip id="43" depart="167.43" from="-381452143#0" to="381452182" type="passenger"/>
    <trip id="44" depart="171.32" from="420187959#3" to="520307305#5" type="passenger"/>
    <trip id="45" depart="175.21" from="37928420" to="-381452126#1" type="passenger"/>
    <trip id="46" depart="179.11" from="-381452165#1" to="-1279010544#0" type="passenger"/>
    <trip id="47" depart="183.00" from="520307305#4" to="-420317544#0" type="passenger"/>
    <trip id="48" depart="186.89" from="-381452170#1" to="-117914354" type="passenger"/>
    <trip id="49" depart="190.79" from="381452118#3" to="-239357573#3" type="passenger"/>
    <trip id="50" depart="194.68" from="-381452165#0" to="420317544#1" type="passenger"/>
    <trip id="51" depart="198.58" from="-420187959#1" to="381452170#1" type="passenger"/>
    <trip id="52" depart="202.47" from="381452118#2" to="-239357573#1" type="passenger"/>
    <trip id="53" depart="206.36" from="420187959#5" to="420187959#12" type="passenger"/>
    <trip id="54" depart="210.26" from="520307305#1" to="381452182" type="passenger"/>
    <trip id="55" depart="214.15" from="-218681380#3" to="244215552#1" type="passenger"/>
    <trip id="56" depart="218.04" from="-117914345#1" to="-381458592#0" type="passenger"/>
    <trip id="57" depart="221.94" from="381452103#0" to="420187959#10" type="passenger"/>
    <trip id="58" depart="225.83" from="-381452103#1" to="420187959#10" type="passenger"/>
    <trip id="59" depart="229.73" from="381452170#1" to="-520307305#1" type="passenger"/>
    <trip id="60" depart="233.62" from="381452118#5" to="-520307305#2" type="passenger"/>
    <trip id="61" depart="237.51" from="381452118#3" to="381458592#1" type="passenger"/>
    <trip id="62" depart="241.41" from="-520307305#2" to="-381452126#0" type="passenger"/>
    <trip id="63" depart="245.30" from="-117914345#1" to="-520307305#1" type="passenger"/>
    <trip id="64" depart="249.19" from="-381452143#1" to="-420187959#1" type="passenger"/>
    <trip id="65" depart="253.09" from="-381452126#0" to="-381452123#1" type="passenger"/>
    <trip id="66" depart="256.98" from="520307305#3" to="-420187959#2" type="passenger"/>
    <trip id="67" depart="260.87" from="420317540" to="-218681380#0" type="passenger"/>
    <trip id="68" depart="264.77" from="117914354" to="420187959#7" type="passenger"/>
    <trip id="69" depart="268.66" from="381452103#0" to="-381452143#1" type="passenger"/>
    <trip id="70" depart="272.56" from="381452118#4" to="218681380#3" type="passenger"/>
    <trip id="71" depart="276.45" from="117914352#1" to="218681380#3" type="passenger"/>
    <trip id="72" depart="280.34" from="381452123#0" to="381458581#1" type="passenger"/>
    <trip id="73" depart="284.24" from="-375125209" to="-381452165#0" type="passenger"/>
    <trip id="74" depart="288.13" from="-218681380#2" to="381452182" type="passenger"/>
    <trip id="75" depart="292.02" from="-381452143#1" to="-381452103#0" type="passenger"/>
    <trip id="76" depart="295.92" from="-420317544#1" to="381452143#1" type="passenger"/>
    <trip id="77" depart="299.81" from="-381452118#4" to="420187959#11" type="passenger"/>
    <trip id="78" depart="303.70" from="520307305#1" to="381452118#5" type="passenger"/>
    <trip id="79" depart="307.60" from="420187959#4" to="-420317543#1" type="passenger"/>
    <trip id="80" depart="311.49" from="-218681380#3" to="420187959#12" type="passenger"/>
    <trip id="81" depart="315.39" from="-381452167" to="420187959#6" type="passenger"/>
    <trip id="82" depart="319.28" from="381452126#1" to="-420317543#1" type="passenger"/>
    <trip id="83" depart="323.17" from="239357573#3" to="218681380#1" type="passenger"/>
    <trip id="84" depart="327.07" from="-420187959#11" to="381458592#1" type="passenger"/>
    <trip id="85" depart="330.96" from="381452103#0" to="381452170#1" type="passenger"/>
    <trip id="86" depart="334.85" from="-520307305#4" to="381458592#1" type="passenger"/>
    <trip id="87" depart="338.75" from="420317544#1" to="381452165#2" type="passenger"/>
    <trip id="88" depart="342.64" from="381458600" to="-239357573#2" type="passenger"/>
    <trip id="89" depart="346.53" from="381452126#0" to="381458600" type="passenger"/>
    <trip id="90" depart="350.43" from="381458592#1" to="-381452170#0" type="passenger"/>
    <trip id="91" depart="354.32" from="-381458592#2" to="520307305#4" type="passenger"/>
    <trip id="92" depart="358.22" from="-218681380#2" to="420187959#12" type="passenger"/>
    <trip id="93" depart="362.11" from="381452143#0" to="381458592#2" type="passenger"/>
    <trip id="94" depart="366.00" from="-381452118#5" to="420187959#10" type="passenger"/>
    <trip id="95" depart="369.90" from="381452118#5" to="381452118#3" type="passenger"/>
    <trip id="96" depart="373.79" from="381458592#0" to="420187959#6" type="passenger"/>
    <trip id="97" depart="377.68" from="420187959#2" to="-239357573#1" type="passenger"/>
    <trip id="98" depart="381.58" from="-218681380#2" to="218681380#2" type="passenger"/>
    <trip id="99" depart="385.47" from="-117914345#0" to="381452143#1" type="passenger"/>
    <trip id="100" depart="389.36" from="381458600" to="-420317543#1" type="passenger"/>
    <trip id="101" depart="393.26" from="117914345#0" to="-381452165#1" type="passenger"/>
    <trip id="102" depart="397.15" from="-381458592#2" to="-420317543#1" type="passenger"/>
    <trip id="103" depart="401.05" from="-381458581#1" to="381452170#1" type="passenger"/>
    <trip id="104" depart="404.94" from="-381458600" to="-520307305#3" type="passenger"/>
    <trip id="105" depart="408.83" from="-420317543#1" to="375125209" type="passenger"/>
    <trip id="106" depart="412.73" from="1279010544#0" to="-117914352#0" type="passenger"/>
    <trip id="107" depart="416.62" from="420317540" to="218681380#2" type="passenger"/>
    <trip id="108" depart="420.51" from="381452103#0" to="381452126#0" type="passenger"/>
    <trip id="109" depart="424.41" from="1279010544#0" to="-520307305#1" type="passenger"/>
    <trip id="110" depart="428.30" from="381458600" to="381452118#5" type="passenger"/>
    <trip id="111" depart="432.19" from="-520307305#0" to="-381452118#1" type="passenger"/>
    <trip id="112" depart="436.09" from="381458592#1" to="-381452151" type="passenger"/>
    <trip id="113" depart="439.98" from="-117914354" to="-381458592#1" type="passenger"/>
    <trip id="114" depart="443.88" from="-420187959#9" to="381458592#2" type="passenger"/>
    <trip id="115" depart="447.77" from="244215552#0" to="381452143#0" type="passenger"/>
    <trip id="116" depart="451.66" from="381452165#2" to="-381452103#0" type="passenger"/>
    <trip id="117" depart="455.56" from="239357573#3" to="420187959#1" type="passenger"/>
    <trip id="118" depart="459.45" from="-381452098" to="-381452165#0" type="passenger"/>
    <trip id="119" depart="463.34" from="520307305#1" to="381452170#0" type="passenger"/>
    <trip id="120" depart="467.24" from="-520307305#1" to="-239357573#1" type="passenger"/>
    <trip id="121" depart="471.13" from="381458592#0" to="117914352#0" type="passenger"/>
    <trip id="122" depart="475.02" from="420317543#0" to="117914354" type="passenger"/>
    <trip id="123" depart="478.92" from="-375125209" to="420317540" type="passenger"/>
    <trip id="124" depart="482.81" from="420187959#5" to="-420317543#0" type="passenger"/>
    <trip id="125" depart="486.71" from="-381452118#1" to="381452165#2" type="passenger"/>
    <trip id="126" depart="490.60" from="-381452118#3" to="381458581#1" type="passenger"/>
    <trip id="127" depart="494.49" from="520307305#0" to="-117914345#0" type="passenger"/>
    <trip id="128" depart="498.39" from="-420317544#0" to="381452167" type="passenger"/>
    <trip id="129" depart="502.28" from="520307305#5" to="-381452108" type="passenger"/>
    <trip id="130" depart="506.17" from="381452118#0" to="-520307305#1" type="passenger"/>
    <trip id="131" depart="510.07" from="-520307305#0" to="420187959#6" type="passenger"/>
    <trip id="132" depart="513.96" from="-381452165#1" to="-381458589#0" type="passenger"/>
    <trip id="133" depart="517.85" from="1279010544#0" to="520307305#4" type="passenger"/>
    <trip id="134" depart="521.75" from="-381452103#1" to="-420317544#2" type="passenger"/>
    <trip id="135" depart="525.64" from="-117914354" to="420187959#5" type="passenger"/>
    <trip id="136" depart="529.54" from="-381452103#0" to="420187959#6" type="passenger"/>
    <trip id="137" depart="533.43" from="420187959#2" to="381458592#2" type="passenger"/>
    <trip id="138" depart="537.32" from="381452104" to="-520307305#0" type="passenger"/>
    <trip id="139" depart="541.22" from="117914352#0" to="-381452143#0" type="passenger"/>
    <trip id="140" depart="545.11" from="520307305#5" to="-381452118#4" type="passenger"/>
    <trip id="141" depart="549.00" from="420317540" to="381452165#0" type="passenger"/>
    <trip id="142" depart="552.90" from="520307305#4" to="420317544#1" type="passenger"/>
    <trip id="143" depart="556.79" from="-420317543#0" to="420187959#3" type="passenger"/>
    <trip id="144" depart="560.68" from="420317540" to="381452165#2" type="passenger"/>
    <trip id="145" depart="564.58" from="-381452143#0" to="-520307305#4" type="passenger"/>
    <trip id="146" depart="568.47" from="-381452126#0" to="-117914354" type="passenger"/>
    <trip id="147" depart="572.37" from="-420317543#0" to="-381452118#1" type="passenger"/>
    <trip id="148" depart="576.26" from="381458592#1" to="-420317544#2" type="passenger"/>
    <trip id="149" depart="580.15" from="381452126#0" to="381452165#1" type="passenger"/>
    <trip id="150" depart="584.05" from="381452118#4" to="520307305#4" type="passenger"/>
    <trip id="151" depart="587.94" from="381452126#0" to="381452103#1" type="passenger"/>
    <trip id="152" depart="591.83" from="218681380#2" to="420317543#0" type="passenger"/>
    <trip id="153" depart="595.73" from="239357573#2" to="244215552#1" type="passenger"/>
    <trip id="154" depart="599.62" from="520307305#2" to="381452118#2" type="passenger"/>
    <trip id="155" depart="603.51" from="381452118#5" to="-381452118#0" type="passenger"/>
    <trip id="156" depart="607.41" from="-381458592#2" to="381452118#5" type="passenger"/>
    <trip id="157" depart="611.30" from="420187959#4" to="-381452165#2" type="passenger"/>
    <trip id="158" depart="615.20" from="-381458592#2" to="-420187959#4" type="passenger"/>
    <trip id="159" depart="619.09" from="117914354" to="381452165#0" type="passenger"/>
    <trip id="160" depart="622.98" from="420187959#3" to="1279010544#0" type="passenger"/>
    <trip id="161" depart="626.88" from="381452126#1" to="381452123#0" type="passenger"/>
    <trip id="162" depart="630.77" from="520307305#2" to="-381452170#1" type="passenger"/>
    <trip id="163" depart="634.66" from="420317544#1" to="420187959#10" type="passenger"/>
    <trip id="164" depart="638.56" from="520307305#5" to="381452165#1" type="passenger"/>
    <trip id="165" depart="642.45" from="381452170#1" to="-420317540" type="passenger"/>
    <trip id="166" depart="646.35" from="381458600" to="381452118#3" type="passenger"/>
    <trip id="167" depart="650.24" from="381452165#0" to="-520307305#1" type="passenger"/>
    <trip id="168" depart="654.13" from="420187959#3" to="420317544#1" type="passenger"/>
    <trip id="169" depart="658.03" from="-381452165#0" to="-420187959#4" type="passenger"/>
    <trip id="170" depart="661.92" from="-420187959#1" to="1279010544#0" type="passenger"/>
    <trip id="171" depart="665.81" from="-420187959#7" to="-420187959#4" type="passenger"/>
    <trip id="172" depart="669.71" from="381458592#0" to="381452118#4" type="passenger"/>
    <trip id="173" depart="673.60" from="-381452165#1" to="381458592#1" type="passenger"/>
    <trip id="174" depart="677.49" from="-381458592#1" to="-381452165#0" type="passenger"/>
    <trip id="175" depart="681.39" from="420187959#5" to="-381452118#3" type="passenger"/>
    <trip id="176" depart="685.28" from="381458592#1" to="381452165#0" type="passenger"/>
    <trip id="177" depart="689.18" from="381452118#4" to="-381452165#2" type="passenger"/>
    <trip id="178" depart="693.07" from="-381452118#0" to="375125209" type="passenger"/>
    <trip id="179" depart="696.96" from="-420317544#2" to="-381452103#0" type="passenger"/>
    <trip id="180" depart="700.86" from="-381452165#1" to="381452143#0" type="passenger"/>
    <trip id="181" depart="704.75" from="381452118#0" to="-420317544#2" type="passenger"/>
    <trip id="182" depart="708.64" from="-420187959#7" to="420317543#1" type="passenger"/>
    <trip id="183" depart="712.54" from="-520307305#0" to="420187959#10" type="passenger"/>
    <trip id="184" depart="716.43" from="520307305#5" to="-381452165#2" type="passenger"/>
    <trip id="185" depart="720.32" from="520307305#5" to="381458581#1" type="passenger"/>
    <trip id="186" depart="724.22" from="420187959#10" to="420187959#10" type="passenger"/>
    <trip id="187" depart="728.11" from="117914345#0" to="381458592#2" type="passenger"/>
    <trip id="188" depart="732.01" from="520307305#5" to="-420317543#1" type="passenger"/>
    <trip id="189" depart="735.90" from="-420317544#0" to="-381458592#0" type="passenger"/>
    <trip id="190" depart="739.79" from="-218681380#0" to="-520307305#4" type="passenger"/>
    <trip id="191" depart="743.69" from="381452170#1" to="-420317543#0" type="passenger"/>
    <trip id="192" depart="747.58" from="-520307305#3" to="117914345#0" type="passenger"/>
    <trip id="193" depart="751.47" from="-381452118#3" to="117914345#1" type="passenger"/>
    <trip id="194" depart="755.37" from="37928420" to="117914345#0" type="passenger"/>
    <trip id="195" depart="759.26" from="-381452165#0" to="381452126#1" type="passenger"/>
    <trip id="196" depart="763.15" from="381458592#1" to="420187959#12" type="passenger"/>
    <trip id="197" depart="767.05" from="-381452123#0" to="-381452151" type="passenger"/>
    <trip id="198" depart="770.94" from="381452126#1" to="420187959#5" type="passenger"/>
    <trip id="199" depart="774.84" from="-420187959#9" to="218681380#1" type="passenger"/>
    <trip id="200" depart="778.73" from="-381458592#1" to="-520307305#3" type="passenger"/>
    <trip id="201" depart="782.62" from="520307305#1" to="381452123#1" type="passenger"/>
    <trip id="202" depart="786.52" from="381452170#1" to="-381452123#0" type="passenger"/>
    <trip id="203" depart="790.41" from="-420187959#12" to="-381452118#1" type="passenger"/>
    <trip id="204" depart="794.30" from="381452118#2" to="381452123#0" type="passenger"/>
    <trip id="205" depart="798.20" from="-520307305#2" to="-381452118#1" type="passenger"/>
    <trip id="206" depart="802.09" from="218681380#1" to="420187959#11" type="passenger"/>
    <trip id="207" depart="805.98" from="239357573#3" to="117914345#0" type="passenger"/>
    <trip id="208" depart="809.88" from="-381452118#2" to="117914345#0" type="passenger"/>
    <trip id="209" depart="813.77" from="-420317543#1" to="-381458589#0" type="passenger"/>
    <trip id="210" depart="817.67" from="239357573#2" to="-218681380#0" type="passenger"/>
    <trip id="211" depart="821.56" from="420187959#3" to="381452170#1" type="passenger"/>
    <trip id="212" depart="825.45" from="-420317544#1" to="-381458592#1" type="passenger"/>
    <trip id="213" depart="829.35" from="420187959#5" to="-381452118#4" type="passenger"/>
    <trip id="214" depart="833.24" from="420187959#1" to="-381452126#0" type="passenger"/>
    <trip id="215" depart="837.13" from="239357573#1" to="-381458589#0" type="passenger"/>
    <trip id="216" depart="841.03" from="-381452165#2" to="-239357573#2" type="passenger"/>
    <trip id="217" depart="844.92" from="-218681380#2" to="381458592#1" type="passenger"/>
    <trip id="218" depart="848.81" from="-218681380#1" to="375125209" type="passenger"/>
    <trip id="219" depart="852.71" from="520307305#4" to="-381452126#1" type="passenger"/>
    <trip id="220" depart="856.60" from="-420187959#10" to="381452118#1" type="passenger"/>
    <trip id="221" depart="860.50" from="-420187959#2" to="381458600" type="passenger"/>
    <trip id="222" depart="864.39" from="381452170#1" to="420317543#0" type="passenger"/>
    <trip id="223" depart="868.28" from="-420187959#7" to="420317544#1" type="passenger"/>
    <trip id="224" depart="872.18" from="-375125209" to="-520307305#4" type="passenger"/>
    <trip id="225" depart="876.07" from="-381458592#1" to="-520307305#0" type="passenger"/>
    <trip id="226" depart="879.96" from="-381458600" to="117914352#1" type="passenger"/>
    <trip id="227" depart="883.86" from="381452118#5" to="381452118#4" type="passenger"/>
    <trip id="228" depart="887.75" from="117914345#0" to="-520307305#2" type="passenger"/>
    <trip id="229" depart="891.64" from="-381458592#2" to="381458592#1" type="passenger"/>
    <trip id="230" depart="895.54" from="-420187959#10" to="381458600" type="passenger"/>
    <trip id="231" depart="899.43" from="-218681380#0" to="117914345#1" type="passenger"/>
    <trip id="232" depart="903.33" from="381452165#2" to="420187959#7" type="passenger"/>
    <trip id="233" depart="907.22" from="117914354" to="117914352#0" type="passenger"/>
    <trip id="234" depart="911.11" from="-381458592#2" to="-420317544#0" type="passenger"/>
    <trip id="235" depart="915.01" from="-381452118#2" to="-381452108" type="passenger"/>
    <trip id="236" depart="918.90" from="-381452143#0" to="420317543#1" type="passenger"/>
    <trip id="237" depart="922.79" from="244215552#0" to="381458592#1" type="passenger"/>
    <trip id="238" depart="926.69" from="381458592#1" to="-381452151" type="passenger"/>
    <trip id="239" depart="930.58" from="-239357573#2" to="-239357573#0" type="passenger"/>
    <trip id="240" depart="934.47" from="-381452165#0" to="117914354" type="passenger"/>
    <trip id="241" depart="938.37" from="-420187959#4" to="520307305#3" type="passenger"/>
    <trip id="242" depart="942.26" from="-381452143#0" to="381452118#3" type="passenger"/>
    <trip id="243" depart="946.16" from="-381452170#0" to="244215552#0" type="passenger"/>
    <trip id="244" depart="950.05" from="-381452143#1" to="117914345#1" type="passenger"/>
    <trip id="245" depart="953.94" from="420317543#0" to="381452118#0" type="passenger"/>
    <trip id="246" depart="957.84" from="-218681380#0" to="381452126#0" type="passenger"/>
    <trip id="247" depart="961.73" from="420187959#5" to="117914352#0" type="passenger"/>
    <trip id="248" depart="965.62" from="-420187959#1" to="520307305#4" type="passenger"/>
    <trip id="249" depart="969.52" from="-420187959#9" to="420187959#6" type="passenger"/>
    <trip id="250" depart="973.41" from="520307305#5" to="381458592#1" type="passenger"/>
    <trip id="251" depart="977.30" from="-381452143#1" to="381458592#2" type="passenger"/>
    <trip id="252" depart="981.20" from="-218681380#0" to="-520307305#3" type="passenger"/>
    <trip id="253" depart="985.09" from="-381452165#2" to="218681380#3" type="passenger"/>
    <trip id="254" depart="988.99" from="239357573#3" to="244215552#1" type="passenger"/>
    <trip id="255" depart="992.88" from="381458589#0" to="420187959#10" type="passenger"/>
    <trip id="256" depart="996.77" from="-218681380#1" to="-37928420" type="passenger"/>
    <trip id="257" depart="1000.67" from="-381458600" to="-239357573#2" type="passenger"/>
    <trip id="258" depart="1004.56" from="420187959#1" to="-420187959#2" type="passenger"/>
    <trip id="259" depart="1008.45" from="-520307305#1" to="-381452126#1" type="passenger"/>
    <trip id="260" depart="1012.35" from="381452118#2" to="-239357573#1" type="passenger"/>
    <trip id="261" depart="1016.24" from="-520307305#0" to="420317544#2" type="passenger"/>
    <trip id="262" depart="1020.14" from="-381452143#0" to="381452143#0" type="passenger"/>
    <trip id="263" depart="1024.03" from="-420187959#5" to="-381452123#0" type="passenger"/>
    <trip id="264" depart="1027.92" from="-375125209" to="-381452118#0" type="passenger"/>
    <trip id="265" depart="1031.82" from="-375125209" to="-420317544#2" type="passenger"/>
    <trip id="266" depart="1035.71" from="-381452118#0" to="-420317540" type="passenger"/>
    <trip id="267" depart="1039.60" from="381452170#1" to="-520307305#3" type="passenger"/>
    <trip id="268" depart="1043.50" from="420187959#2" to="381452118#0" type="passenger"/>
    <trip id="269" depart="1047.39" from="-420187959#9" to="-420317544#1" type="passenger"/>
    <trip id="270" depart="1051.28" from="-381452143#0" to="-239357573#0" type="passenger"/>
    <trip id="271" depart="1055.18" from="-381452143#0" to="381458592#2" type="passenger"/>
    <trip id="272" depart="1059.07" from="-117914345#0" to="-37928420" type="passenger"/>
    <trip id="273" depart="1062.97" from="381452104" to="420317544#1" type="passenger"/>
    <trip id="274" depart="1066.86" from="-218681380#0" to="-381452118#3" type="passenger"/>
    <trip id="275" depart="1070.75" from="-381452165#0" to="244215552#1" type="passenger"/>
    <trip id="276" depart="1074.65" from="381452118#0" to="-218681380#0" type="passenger"/>
    <trip id="277" depart="1078.54" from="-420187959#7" to="420187959#5" type="passenger"/>
    <trip id="278" depart="1082.43" from="381452170#0" to="420187959#8" type="passenger"/>
    <trip id="279" depart="1086.33" from="381458589#0" to="-381452123#1" type="passenger"/>
    <trip id="280" depart="1090.22" from="-218681380#1" to="420187959#7" type="passenger"/>
    <trip id="281" depart="1094.11" from="381452170#1" to="1279010544#0" type="passenger"/>
    <trip id="282" depart="1098.01" from="-420187959#1" to="-218681380#2" type="passenger"/>
    <trip id="283" depart="1101.90" from="-520307305#0" to="-420187959#4" type="passenger"/>
    <trip id="284" depart="1105.80" from="-381458581#1" to="239357573#1" type="passenger"/>
    <trip id="285" depart="1109.69" from="1279010544#0" to="218681380#3" type="passenger"/>
    <trip id="286" depart="1113.58" from="381458589#0" to="-381452165#0" type="passenger"/>
    <trip id="287" depart="1117.48" from="-420187959#6" to="-420317544#1" type="passenger"/>
    <trip id="288" depart="1121.37" from="-381452103#1" to="-420317543#0" type="passenger"/>
    <trip id="289" depart="1125.26" from="218681380#2" to="381452182" type="passenger"/>
    <trip id="290" depart="1129.16" from="239357573#3" to="239357573#3" type="passenger"/>
    <trip id="291" depart="1133.05" from="-381452170#0" to="381452123#1" type="passenger"/>
    <trip id="292" depart="1136.94" from="381452118#2" to="381452126#0" type="passenger"/>
    <trip id="293" depart="1140.84" from="218681380#2" to="420317543#1" type="passenger"/>
    <trip id="294" depart="1144.73" from="420317543#0" to="-381452126#1" type="passenger"/>
    <trip id="295" depart="1148.63" from="381458592#0" to="-520307305#3" type="passenger"/>
    <trip id="296" depart="1152.52" from="-420187959#3" to="381452165#2" type="passenger"/>
    <trip id="297" depart="1156.41" from="381452123#0" to="-218681380#2" type="passenger"/>
    <trip id="298" depart="1160.31" from="520307305#2" to="420187959#7" type="passenger"/>
    <trip id="299" depart="1164.20" from="-420187959#8" to="-37928420" type="passenger"/>
    <trip id="300" depart="1168.09" from="520307305#3" to="-381452118#3" type="passenger"/>
    <trip id="301" depart="1171.99" from="239357573#1" to="-420317543#0" type="passenger"/>
    <trip id="302" depart="1175.88" from="381458600" to="381452123#1" type="passenger"/>
    <trip id="303" depart="1179.77" from="-381452118#3" to="-381452118#5" type="passenger"/>
    <trip id="304" depart="1183.67" from="381452118#0" to="375125209" type="passenger"/>
    <trip id="305" depart="1187.56" from="381452143#0" to="420317540" type="passenger"/>
    <trip id="306" depart="1191.46" from="-381452182" to="-381452123#1" type="passenger"/>
    <trip id="307" depart="1195.35" from="420317543#0" to="-117914354" type="passenger"/>
    <trip id="308" depart="1199.24" from="-381452118#3" to="381452170#1" type="passenger"/>
    <trip id="309" depart="1203.14" from="-381452118#1" to="420187959#8" type="passenger"/>
    <trip id="310" depart="1207.03" from="-218681380#0" to="1279010544#0" type="passenger"/>
    <trip id="311" depart="1210.92" from="-381452143#0" to="420187959#12" type="passenger"/>
    <trip id="312" depart="1214.82" from="-117914352#0" to="420187959#11" type="passenger"/>
    <trip id="313" depart="1218.71" from="381452118#1" to="-381452123#1" type="passenger"/>
    <trip id="314" depart="1222.60" from="381452143#1" to="420317540" type="passenger"/>
    <trip id="315" depart="1226.50" from="239357573#3" to="-381458592#1" type="passenger"/>
    <trip id="316" depart="1230.39" from="-117914345#0" to="-381458600" type="passenger"/>
    <trip id="317" depart="1234.29" from="218681380#1" to="-420187959#4" type="passenger"/>
    <trip id="318" depart="1238.18" from="381452103#0" to="381452103#0" type="passenger"/>
    <trip id="319" depart="1242.07" from="520307305#2" to="244215552#1" type="passenger"/>
    <trip id="320" depart="1245.97" from="117914352#0" to="-420317544#2" type="passenger"/>
    <trip id="321" depart="1249.86" from="420187959#4" to="-381452126#0" type="passenger"/>