<?xml version="1.0" encoding="UTF-8"?>

<!-- generated on 2026-04-17 02:58:50.975167 by Eclipse SUMO randomTrips.py v1.26.0
<configuration>
    <net-file value="/Users/junlee/Desktop/2026-1/js/result/tradeoff_pet_top12_seed12_60min_20260417_025716/sumo_nets/cw_8340/network.net.xml"/>
    <output-trip-file value="/Users/junlee/Desktop/2026-1/js/result/tradeoff_pet_top12_seed12_60min_20260417_025716/sumo_nets/cw_8340/routes_seed49.trips.xml"/>
    <route-file value="/Users/junlee/Desktop/2026-1/js/result/tradeoff_pet_top12_seed12_60min_20260417_025716/sumo_nets/cw_8340/routes_seed49.rou.xml"/>
    <vehicle-class value="passenger"/>
    <seed value="49"/>
    <period value="3.9783577691213456"/>
</configuration>
-->

<!-- generated on 2026-04-17T02:58:50.951832+09:00 by Eclipse SUMO duarouter 1.26.0
<duarouterConfiguration xmlns:xsi="http://www.w3.org/2001/XMLSchema-instance" xsi:noNamespaceSchemaLocation="http://sumo.dlr.de/xsd/duarouterConfiguration.xsd">

    <input>
        <net-file value="/Users/junlee/Desktop/2026-1/js/result/tradeoff_pet_top12_seed12_60min_20260417_025716/sumo_nets/cw_8340/network.net.xml"/>
        <route-files value="/Users/junlee/Desktop/2026-1/js/result/tradeoff_pet_top12_seed12_60min_20260417_025716/sumo_nets/cw_8340/routes_seed49.trips.xml"/>
    </input>

    <output>
        <output-file value="/Users/junlee/Desktop/2026-1/js/result/tradeoff_pet_top12_seed12_60min_20260417_025716/sumo_nets/cw_8340/routes_seed49.rou.xml"/>
        <alternatives-output value="NUL"/>
    </output>

    <time>
        <begin value="0.0"/>
        <end value="3600.0"/>
    </time>

    <report>
        <no-warnings value="true"/>
        <ignore-errors value="true"/>
        <no-step-log value="true"/>
    </report>

</duarouterConfiguration>
-->

<routes xmlns:xsi="http://www.w3.org/2001/XMLSchema-instance" xsi:noNamespaceSchemaLocation="http://sumo.dlr.de/xsd/routes_file.xsd">
    <vType id="passenger" vClass="passenger"/>
    <vehicle id="0" type="passenger" depart="0.00">
        <route edges="-218681380#3 -218681380#2 -218681380#1 -218681380#0 -520307305#4 -520307305#3 -520307305#2 -520307305#1 -520307305#0 244215552#0 -420317543#1"/>
    </vehicle>
    <vehicle id="1" type="passenger" depart="3.98">
        <route edges="-381452098 -520307305#3 -520307305#2 -520307305#1 -520307305#0 244215552#0 -420317543#1 -420317544#1 -420317544#0 381452167"/>
    </vehicle>
    <vehicle id="2" type="passenger" depart="7.96">
        <route edges="117914345#0 -381452143#1 -381452143#0 -420187959#5 -420187959#4 -420187959#3 -420187959#2 -420187959#1 -1279010544#0 520307305#3 520307305#4 520307305#5 218681380#1 381452165#0 -381452126#0 381452118#5 -218681380#2"/>
    </vehicle>
    <vehicle id="3" type="passenger" depart="11.94">
        <route edges="-218681380#0 381452118#0 -381452126#1 381452165#1"/>
    </vehicle>
    <vehicle id="4" type="passenger" depart="15.91">
        <route edges="-381452118#2 -381452118#1 -381452118#0 520307305#5 218681380#1 381452165#0"/>
    </vehicle>
    <vehicle id="5" type="passenger" depart="19.89">
        <route edges="381452108 -420187959#7 -420187959#6 -420187959#5 -420187959#4 420317540 117914352#0"/>
    </vehicle>
    <vehicle id="6" type="passenger" depart="23.87">
        <route edges="420187959#3 -117914354 375125209"/>
    </vehicle>
    <vehicle id="7" type="passenger" depart="27.85">
        <route edges="239357573#1 239357573#2 239357573#3 -520307305#2 -520307305#1 -520307305#0 244215552#0 -420317543#1 -420317543#0 -420317540"/>
    </vehicle>
    <vehicle id="8" type="passenger" depart="31.83">
        <route edges="-381452165#2 381452123#1 -381452118#3 -381452118#2"/>
    </vehicle>
    <vehicle id="9" type="passenger" depart="35.81">
        <route edges="381452170#1 -381452103#0 -1279010544#0 -239357573#3 -239357573#2 -381458589#0"/>
    </vehicle>
    <vehicle id="10" type="passenger" depart="39.78">
        <route edges="-420187959#8 -420187959#7 -420187959#6 -420187959#5 -420187959#4 420317540 420317543#0 420317544#2"/>
    </vehicle>
    <vehicle id="11" type="passenger" depart="43.76">
        <route edges="381452104 -420187959#4 -420187959#3 -420187959#2 -420187959#1 -1279010544#0 520307305#3 520307305#4 381452118#0 381452118#1 381452118#2 381452118#3"/>
    </vehicle>
    <vehicle id="12" type="passenger" depart="47.74">
        <route edges="381452123#0 -381452165#1 -381452165#0 -218681380#1 -218681380#0 -520307305#4 -520307305#3 1279010544#0 420187959#1 420187959#2 420187959#3 420187959#4 420187959#5 420187959#6 420187959#7 420187959#8 420187959#9"/>
    </vehicle>
    <vehicle id="13" type="passenger" depart="51.72">
        <route edges="-381452126#1 -381452165#0 -218681380#1 -218681380#0 -520307305#4 -520307305#3 1279010544#0 420187959#1 420187959#2 420187959#3 -117914354 381452170#0 381452170#1"/>
    </vehicle>
    <vehicle id="14" type="passenger" depart="55.70">
        <route edges="-218681380#3 -218681380#2 -218681380#1 -218681380#0 -520307305#4 -520307305#3 1279010544#0 381452103#0 -381452170#1 -381452170#0"/>
    </vehicle>
    <vehicle id="15" type="passenger" depart="59.68">
        <route edges="-520307305#2 -520307305#1 -520307305#0 244215552#0 -420317543#1 -420317543#0 -420317540 420187959#4 420187959#5 381452143#0 -381452151"/>
    </vehicle>
    <vehicle id="16" type="passenger" depart="63.65">
        <route edges="-381452167 -117914352#0 -420317540 -420187959#3 -420317544#2"/>
    </vehicle>
    <vehicle id="17" type="passenger" depart="67.63">
        <route edges="381452103#0 -381452170#1 -381452170#0 117914354 -420187959#3 -420187959#2 -420187959#1 -1279010544#0 520307305#3 520307305#4 520307305#5 218681380#1 381452165#0 381452165#1 381452123#1"/>
    </vehicle>
    <vehicle id="18" type="passenger" depart="71.61">
        <route edges="520307305#1 520307305#2 1279010544#0 381452103#0 -381452170#1 381452182"/>
    </vehicle>
    <vehicle id="19" type="passenger" depart="75.59">
        <route edges="218681380#1 218681380#2"/>
    </vehicle>
    <vehicle id="20" type="passenger" depart="79.57">
        <route edges="-381452118#2 -381452118#1 -381452126#1"/>
    </vehicle>
    <vehicle id="21" type="passenger" depart="83.55">
        <route edges="420187959#1 420187959#2 420187959#3 -117914354 381452170#0 381452170#1 -381452103#0 -1279010544#0 -239357573#3 -239357573#2 -239357573#1 -239357573#0"/>
    </vehicle>
    <vehicle id="22" type="passenger" depart="87.52">
        <route edges="381452118#3 381452118#4 381452118#5 -218681380#2 -218681380#1 -218681380#0 -520307305#4 -520307305#3 1279010544#0 420187959#1 420187959#2 -420317544#2"/>
    </vehicle>
    <vehicle id="23" type="passenger" depart="91.50">
        <route edges="-420187959#10 -420187959#9 -420187959#8 -420187959#7 -420187959#6 -420187959#5 -420187959#4 -420187959#3 -420187959#2 -420187959#1 -1279010544#0 -239357573#3 -239357573#2"/>
    </vehicle>
    <vehicle id="24" type="passenger" depart="95.48">
        <route edges="-381452123#1 -381452165#1 -381452165#0 -218681380#1 -218681380#0 -520307305#4 -520307305#3 -520307305#2 -520307305#1 -520307305#0 244215552#0 -420317543#1 -420317544#1 -420317544#0"/>
    </vehicle>
    <vehicle id="25" type="passenger" depart="99.46">
        <route edges="381452143#0 381452143#1 -117914345#0 381452170#0 381452170#1 -381452103#0 -1279010544#0 520307305#3 520307305#4 520307305#5 218681380#1 218681380#2 -381452118#5 -381452118#4"/>
    </vehicle>
    <vehicle id="26" type="passenger" depart="103.44">
        <route edges="-375125209 117914354 420317540 117914352#0 117914352#1 420317544#1 -420317543#0"/>
    </vehicle>
    <vehicle id="27" type="passenger" depart="107.42">
        <route edges="420187959#3 -117914354 381452170#0 381452170#1 -381452103#0 -1279010544#0 520307305#3 520307305#4 381452118#0 381452118#1 381452118#2"/>
    </vehicle>
    <vehicle id="28" type="passenger" depart="111.39">
        <route edges="420317544#2 420187959#3 -117914354 375125209"/>
    </vehicle>
    <vehicle id="29" type="passenger" depart="115.37">
        <route edges="381452118#1 381452123#0 -381452165#1 -381452165#0"/>
    </vehicle>
    <vehicle id="30" type="passenger" depart="119.35">
        <route edges="-420187959#9 -420187959#8 -420187959#7 -420187959#6 -420187959#5 -420187959#4 -420187959#3 -420187959#2 -420187959#1 -1279010544#0 520307305#3 520307305#4 520307305#5 218681380#1 381452165#0 381452126#1 -381452118#0 -520307305#4 -520307305#3 1279010544#0"/>
    </vehicle>
    <vehicle id="31" type="passenger" depart="123.33">
        <route edges="420187959#5 381452143#0 381452143#1 -117914345#0 381452170#0 381452170#1 -381452103#0 -1279010544#0 520307305#3 520307305#4 381452118#0 381452118#1 381452118#2 381452118#3 381452118#4"/>
    </vehicle>
    <vehicle id="32" type="passenger" depart="127.31">
        <route edges="-420187959#4 -117914354 117914345#0 -381452143#1 -381452143#0 420187959#6"/>
    </vehicle>
    <vehicle id="33" type="passenger" depart="131.29">
        <route edges="381452103#0 -381452170#1 -381452170#0 117914354 420187959#4 420187959#5 381452143#0 381452143#1"/>
    </vehicle>
    <vehicle id="34" type="passenger" depart="135.26">
        <route edges="-381452118#5 381452126#0 -381452165#0 -218681380#1 -218681380#0 -520307305#4 -520307305#3 1279010544#0 381452103#0 -381452170#1"/>
    </vehicle>
    <vehicle id="35" type="passenger" depart="139.24">
        <route edges="244215552#0 -420317543#1 -420317544#1"/>
    </vehicle>
    <vehicle id="36" type="passenger" depart="143.22">
        <route edges="-381452167 -117914352#0 420317543#0"/>
    </vehicle>
    <vehicle id="37" type="passenger" depart="147.20">
        <route edges="520307305#1 520307305#2 520307305#3 520307305#4 520307305#5 218681380#1 381452165#0 -381452126#0 381452118#5"/>
    </vehicle>
    <vehicle id="38" type="passenger" depart="151.18">
        <route edges="520307305#2 1279010544#0 420187959#1 420187959#2 420187959#3 420187959#4 420187959#5 381452143#0 381452143#1"/>
    </vehicle>
    <vehicle id="39" type="passenger" depart="155.16">
        <route edges="-420317544#2 -420317543#0 -420317540 -420187959#3 -420187959#2 -420187959#1 -1279010544#0 520307305#3 520307305#4 520307305#5 218681380#1 381452165#0 381452126#1 -381452118#0"/>
    </vehicle>
    <vehicle id="40" type="passenger" depart="159.13">
        <route edges="239357573#0 239357573#1 239357573#2 239357573#3 1279010544#0 420187959#1 420187959#2 420187959#3 420187959#4 420187959#5 420187959#6 420187959#7 420187959#8 420187959#9"/>
    </vehicle>
    <vehicle id="41" type="passenger" depart="163.11">
        <route edges="239357573#1 239357573#2 239357573#3 520307305#3 520307305#4 520307305#5 218681380#1 381452165#0 381452165#1"/>
    </vehicle>
    <vehicle id="42" type="passenger" depart="167.09">
        <route edges="-420187959#5 -420187959#4 -420187959#3 -420187959#2 -420187959#1 -1279010544#0"/>
    </vehicle>
    <vehicle id="43" type="passenger" depart="171.07">
        <route edges="117914345#0 -381452143#1 -381452143#0 -420187959#5 -420187959#4 -420187959#3"/>
    </vehicle>
    <vehicle id="44" type="passenger" depart="175.05">
        <route edges="420317544#2 420187959#3 420317540"/>
    </vehicle>
    <vehicle id="45" type="passenger" depart="179.03">
        <route edges="381452118#1 381452123#0 -381452165#1 -381452165#0 -218681380#1 -218681380#0 -520307305#4 -520307305#3 1279010544#0"/>
    </vehicle>
    <vehicle id="46" type="passenger" depart="183.00">
        <route edges="1279010544#0 420187959#1 420187959#2 420187959#3 420317540"/>
    </vehicle>
    <vehicle id="47" type="passenger" depart="186.98">
        <route edges="-117914345#1 -117914345#0 381452170#0 381452170#1 -381452103#0 -1279010544#0 520307305#3 520307305#4 381452118#0 -381452126#1 -381452165#0 -218681380#1 -218681380#0"/>
    </vehicle>
    <vehicle id="48" type="passenger" depart="190.96">
        <route edges="520307305#4 520307305#5 218681380#1 381452165#0 381452126#1 -381452118#0 -520307305#4 -520307305#3 1279010544#0 420187959#1 420187959#2 420187959#3 420187959#4 420187959#5 420187959#6 420187959#7 420187959#8"/>
    </vehicle>
    <vehicle id="49" type="passenger" depart="194.94">
        <route edges="381452143#0 381452143#1 -117914345#0 381452170#0 381452170#1 -381452103#0 420187959#1"/>
    </vehicle>
    <vehicle id="50" type="passenger" depart="198.92">
        <route edges="-381452167 -117914352#0 -420317540 420187959#4 420187959#5 420187959#6 420187959#7 -381452108"/>
    </vehicle>
    <vehicle id="51" type="passenger" depart="202.90">
        <route edges="-381452143#0 -420187959#5 -420187959#4 -117914354 381452170#0 381452170#1 -381452103#0 420187959#1 420187959#2 420187959#3"/>
    </vehicle>
    <vehicle id="52" type="passenger" depart="206.87">
        <route edges="-381452118#2 -381452118#1 -381452118#0 -520307305#4 -520307305#3 -520307305#2 -520307305#1 -520307305#0 244215552#0 -420317543#1 -420317543#0 -420317540"/>
    </vehicle>
    <vehicle id="53" type="passenger" depart="210.85">
        <route edges="-381452170#1 -381452170#0 117914354 -420187959#3 -420187959#2 -420187959#1 -1279010544#0 -520307305#2 -520307305#1 -520307305#0 244215552#0"/>
    </vehicle>
    <vehicle id="54" type="passenger" depart="214.83">
        <route edges="381452165#2 -381452118#2 -381452118#1 -381452118#0 -520307305#4 -520307305#3 1279010544#0 420187959#1 420187959#2 420187959#3"/>
    </vehicle>
    <vehicle id="55" type="passenger" depart="218.81">
        <route edges="37928420 244215552#0 -420317543#1 420317544#2 -420187959#2 -420187959#1"/>
    </vehicle>
    <vehicle id="56" type="passenger" depart="222.79">
        <route edges="-420187959#2 -420187959#1 381452103#0 -381452170#1 -381452170#0 117914345#0 -381452143#1"/>
    </vehicle>
    <vehicle id="57" type="passenger" depart="226.77">
        <route edges="-381452103#0 -1279010544#0 520307305#3 520307305#4 381452118#0 -381452126#1 -381452165#0 -218681380#1"/>
    </vehicle>
    <vehicle id="58" type="passenger" depart="230.74">
        <route edges="-381452103#1 -381452103#0 420187959#1 420187959#2 420187959#3 420317540"/>
    </vehicle>
    <vehicle id="59" type="passenger" depart="234.72">
        <route edges="117914345#0 -381452143#1 -381452143#0 -420187959#5 -420187959#4 -420187959#3 -420187959#2 -420187959#1 -1279010544#0 520307305#3 520307305#4 520307305#5 218681380#1 -381458600 -381458592#0"/>
    </vehicle>
    <vehicle id="60" type="passenger" depart="238.70">
        <route edges="-381452182 381452170#1 -381452103#0 -1279010544#0 520307305#3 520307305#4 520307305#5 218681380#1 381452165#0 381452126#1 -381452118#0 -520307305#4 -520307305#3"/>
    </vehicle>
    <vehicle id="61" type="passenger" depart="242.68">
        <route edges="381452118#0 -381452126#1 -381452165#0 -218681380#1 -381458592#2"/>
    </vehicle>
    <vehicle id="62" type="passenger" depart="246.66">
        <route edges="381452143#0 381452143#1 -117914345#0 117914354 420317540 420317543#0 -420317544#1 -420317544#0 -117914352#0"/>
    </vehicle>
    <vehicle id="63" type="passenger" depart="250.64">
        <route edges="381452118#4 381452118#5 -218681380#2 -218681380#1 -218681380#0 381452118#0 -381452126#1"/>
    </vehicle>
    <vehicle id="64" type="passenger" depart="254.61">
        <route edges="-381452103#1 -381452103#0 420187959#1 420187959#2 420187959#3 420187959#4 420187959#5 420187959#6 420187959#7 420187959#8 420187959#9 420187959#10"/>
    </vehicle>
    <vehicle id="65" type="passenger" depart="258.59">
        <route edges="381452165#1 381452165#2 381452118#3 -381452123#1 -381452165#1 -381452165#0"/>
    </vehicle>
    <vehicle id="66" type="passenger" depart="262.57">
        <route edges="-1279010544#0 520307305#3 520307305#4 520307305#5 218681380#1 381452165#0"/>
    </vehicle>
    <vehicle id="67" type="passenger" depart="266.55">
        <route edges="420317540 420317543#0 420317544#2 -420187959#2 -420187959#1 -1279010544#0 -520307305#2 -520307305#1 -520307305#0 -37928420"/>
    </vehicle>
    <vehicle id="68" type="passenger" depart="270.53">
        <route edges="520307305#0 520307305#1 520307305#2 1279010544#0 420187959#1 420187959#2 420187959#3 -117914354 381452170#0 381452170#1"/>
    </vehicle>
    <vehicle id="69" type="passenger" depart="274.51">
        <route edges="-381452165#0 -218681380#1 -218681380#0 381452118#0 -381452126#1 -381452126#0 381452118#5 -218681380#2"/>
    </vehicle>
    <vehicle id="70" type="passenger" depart="278.49">
        <route edges="381452126#0 -381452165#0 -218681380#1 -218681380#0 -520307305#4 -520307305#3 1279010544#0 420187959#1 420187959#2 420187959#3 -117914354 117914345#0 -381452143#1 -381452143#0 -420187959#5"/>
    </vehicle>
    <vehicle id="71" type="passenger" depart="282.46">
        <route edges="-381452118#0 -520307305#4 -520307305#3 -520307305#2 -520307305#1 -520307305#0 244215552#0 -420317543#1 420317544#2 -420187959#2"/>
    </vehicle>
    <vehicle id="72" type="passenger" depart="286.44">
        <route edges="218681380#2 -381452118#5 381452126#0 -381452165#0 -218681380#1 -218681380#0 -520307305#4 -520307305#3 -520307305#2 -520307305#1 -520307305#0 244215552#0 -420317543#1 -420317543#0 117914352#0 117914352#1 420317544#1"/>
    </vehicle>
    <vehicle id="73" type="passenger" depart="290.42">
        <route edges="-218681380#2 -218681380#1 -218681380#0 -520307305#4 -520307305#3 -239357573#3 -239357573#2 -239357573#1"/>
    </vehicle>
    <vehicle id="74" type="passenger" depart="294.40">
        <route edges="-420187959#10 -420187959#9 -420187959#8 -420187959#7 -420187959#6 -420187959#5 -420187959#4 -420187959#3 -420187959#2 -420187959#1 -1279010544#0 -520307305#2"/>
    </vehicle>
    <vehicle id="75" type="passenger" depart="298.38">
        <route edges="-420187959#3 -420187959#2 -420187959#1 -1279010544#0 520307305#3 520307305#4 381452118#0 -381452126#1"/>
    </vehicle>
    <vehicle id="76" type="passenger" depart="302.36">
        <route edges="218681380#2 -381452118#5 -381452118#4 -381452123#1"/>
    </vehicle>
    <vehicle id="77" type="passenger" depart="306.33">
        <route edges="-381458592#1 381458600 -218681380#1 -218681380#0 -520307305#4 -520307305#3 -239357573#3"/>
    </vehicle>
    <vehicle id="78" type="passenger" depart="310.31">
        <route edges="-218681380#2 -218681380#1 -218681380#0 -520307305#4 -520307305#3 -520307305#2 -520307305#1"/>
    </vehicle>
    <vehicle id="79" type="passenger" depart="314.29">
        <route edges="-420317540 -420187959#3 -420187959#2 -420187959#1 -1279010544#0 520307305#3 520307305#4 381452118#0 381452118#1"/>
    </vehicle>
    <vehicle id="80" type="passenger" depart="318.27">
        <route edges="420317540 420317543#0 420317544#2 -420187959#2 -420187959#1 -1279010544#0 520307305#3 520307305#4 520307305#5 218681380#1 381452165#0 381452165#1 381452165#2"/>
    </vehicle>
    <vehicle id="81" type="passenger" depart="322.25">
        <route edges="-381452118#0 -520307305#4 -520307305#3 1279010544#0 420187959#1 420187959#2 420187959#3 420187959#4 420187959#5 381452143#0"/>
    </vehicle>
    <vehicle id="82" type="passenger" depart="326.23">
        <route edges="381452108 -420187959#7 -420187959#6 381452143#0 381452143#1 -117914345#0 381452170#0 381452170#1"/>
    </vehicle>
    <vehicle id="83" type="passenger" depart="330.20">
        <route edges="-117914345#1 -117914345#0 381452170#0 381452170#1 -381452103#0 -1279010544#0 520307305#3 520307305#4 520307305#5 -381458592#2 -381458592#1"/>
    </vehicle>
    <vehicle id="84" type="passenger" depart="334.18">
        <route edges="420317543#0 420317544#2 420187959#3 420187959#4 420187959#5 420187959#6 420187959#7 420187959#8"/>
    </vehicle>
    <vehicle id="85" type="passenger" depart="338.16">
        <route edges="-381452103#1 -381452103#0 -1279010544#0 520307305#3 520307305#4 520307305#5 218681380#1 381452165#0 -381452126#0"/>
    </vehicle>
    <vehicle id="86" type="passenger" depart="342.14">
        <route edges="-381452118#5 381452126#0 -381452165#0 -218681380#1 -218681380#0 -520307305#4 -520307305#3 -520307305#2 -520307305#1 -520307305#0 244215552#0 -420317543#1 420317544#2 -420187959#2"/>
    </vehicle>
    <vehicle id="87" type="passenger" depart="346.12">
        <route edges="-520307305#2 -520307305#1 -520307305#0 244215552#0 -420317543#1 -420317543#0 -420317540 420187959#4 420187959#5 420187959#6 420187959#7 420187959#8 420187959#9"/>
    </vehicle>
    <vehicle id="88" type="passenger" depart="350.10">
        <route edges="381458589#0 239357573#2 239357573#3 520307305#3 520307305#4 381452118#0 -381452126#1 -381452165#0"/>
    </vehicle>
    <vehicle id="89" type="passenger" depart="354.07">
        <route edges="381452118#0 -381452126#1 -381452165#0 -381458600"/>
    </vehicle>
    <vehicle id="90" type="passenger" depart="358.05">
        <route edges="-381452123#1 -381452165#1 -381452165#0 -218681380#1 -218681380#0 -520307305#4 -520307305#3"/>
    </vehicle>
    <vehicle id="91" type="passenger" depart="362.03">
        <route edges="-218681380#1 -218681380#0 -520307305#4 -520307305#3 1279010544#0 420187959#1 420187959#2 420187959#3 420187959#4 420187959#5 420187959#6 420187959#7 420187959#8 420187959#9"/>
    </vehicle>
    <vehicle id="92" type="passenger" depart="366.01">
        <route edges="-420187959#9 -420187959#8 -420187959#7 -420187959#6 -420187959#5 -420187959#4 -420187959#3 -420187959#2 -420187959#1 -1279010544#0 520307305#3 520307305#4 520307305#5 218681380#1 -381458600 381458592#1"/>
    </vehicle>
    <vehicle id="93" type="passenger" depart="369.99">
        <route edges="520307305#3 520307305#4 520307305#5 218681380#1 218681380#2 -381452118#5 -381452118#4 -381452123#1"/>
    </vehicle>
    <vehicle id="94" type="passenger" depart="373.97">
        <route edges="420317544#2 420187959#3 -117914354"/>
    </vehicle>
    <vehicle id="95" type="passenger" depart="377.94">
        <route edges="-1279010544#0 -239357573#3 -239357573#2 -239357573#1"/>
    </vehicle>
    <vehicle id="96" type="passenger" depart="381.92">
        <route edges="-420187959#10 -420187959#9 -420187959#8 -420187959#7 -420187959#6 381452143#0 381452143#1 -117914345#0 117914354"/>
    </vehicle>
    <vehicle id="97" type="passenger" depart="385.90">
        <route edges="-381452143#0 -420187959#5 -420187959#4 -420187959#3 -420187959#2 -420187959#1 -1279010544#0 520307305#3 520307305#4 520307305#5 218681380#1 381452165#0"/>
    </vehicle>
    <vehicle id="98" type="passenger" depart="389.88">
        <route edges="117914352#0 117914352#1 420317544#1 -420317543#0 -420317540 -117914354 117914345#0 117914345#1"/>
    </vehicle>
    <vehicle id="99" type="passenger" depart="393.86">
        <route edges="-1279010544#0 -520307305#2 -520307305#1 -520307305#0 -37928420"/>
    </vehicle>
    <vehicle id="100" type="passenger" depart="397.84">
        <route edges="381452126#0 -381452165#0 -218681380#1 -218681380#0 -520307305#4 -520307305#3 1279010544#0 420187959#1"/>
    </vehicle>
    <vehicle id="101" type="passenger" depart="401.81">
        <route edges="520307305#2 1279010544#0 420187959#1 420187959#2 420187959#3 -117914354 117914345#0 117914345#1"/>
    </vehicle>
    <vehicle id="102" type="passenger" depart="405.79">
        <route edges="-218681380#0 -520307305#4 -520307305#3"/>
    </vehicle>
    <vehicle id="103" type="passenger" depart="409.77">
        <route edges="-420317543#1 420317544#2 -420187959#2 -420187959#1 381452103#0 -381452170#1 -381452170#0 117914354"/>
    </vehicle>
    <vehicle id="104" type="passenger" depart="413.75">
        <route edges="-381452165#2 -381452165#1 -381452165#0 218681380#2"/>
    </vehicle>
    <vehicle id="105" type="passenger" depart="417.73">
        <route edges="-381452143#0 -420187959#5 -420187959#4 -420187959#3 -420187959#2 -420187959#1 381452103#0 -381452170#1"/>
    </vehicle>
    <vehicle id="106" type="passenger" depart="421.71">
        <route edges="-381452182 381452170#1 -381452103#0 -1279010544#0 520307305#3 520307305#4 520307305#5 218681380#1 381452165#0 381452165#1 381452123#1"/>
    </vehicle>
    <vehicle id="107" type="passenger" depart="425.68">
        <route edges="-117914345#1 -117914345#0 117914354 420317540 117914352#0 117914352#1"/>
    </vehicle>
    <vehicle id="108" type="passenger" depart="429.66">
        <route edges="117914354 420187959#4 420187959#5 381452143#0 381452143#1"/>
    </vehicle>
    <vehicle id="109" type="passenger" depart="433.64">
        <route edges="381452118#5 -218681380#2 -218681380#1 -218681380#0 -520307305#4 -520307305#3 1279010544#0"/>
    </vehicle>
    <vehicle id="110" type="passenger" depart="437.62">
        <route edges="-381452123#1 -381452165#1 -381452165#0 -218681380#1 -218681380#0 -520307305#4 -520307305#3 1279010544#0 420187959#1 420187959#2 420187959#3 -117914354 117914345#0 -381452143#1"/>
    </vehicle>
    <vehicle id="111" type="passenger" depart="441.60">
        <route edges="-420187959#10 -420187959#9 -420187959#8 -420187959#7 -420187959#6 -420187959#5 -420187959#4 -420187959#3 -420187959#2 -420187959#1 -1279010544#0 520307305#3 520307305#4 520307305#5 218681380#1 381452165#0 381452165#1"/>
    </vehicle>
    <vehicle id="112" type="passenger" depart="445.58">
        <route edges="-381452123#0 -381452118#1 -381452118#0 -520307305#4 -520307305#3 1279010544#0 420187959#1 420187959#2 420187959#3 -117914354 117914345#0 -381452143#1 -381452143#0 -420187959#5 -420187959#4"/>
    </vehicle>
    <vehicle id="113" type="passenger" depart="449.55">
        <route edges="381452143#1 -117914345#0 381452170#0 381452170#1 -381452103#0 -1279010544#0 -520307305#2 -520307305#1 -520307305#0 244215552#0 244215552#1"/>
    </vehicle>
    <vehicle id="114" type="passenger" depart="453.53">
        <route edges="-520307305#3 -520307305#2 -520307305#1"/>
    </vehicle>
    <vehicle id="115" type="passenger" depart="457.51">
        <route edges="117914352#1"/>
    </vehicle>
    <vehicle id="116" type="passenger" depart="461.49">
        <route edges="381452170#1 -381452103#0 420187959#1 420187959#2"/>
    </vehicle>
    <vehicle id="117" type="passenger" depart="465.47">
        <route edges="-381452126#1 -381452165#0 -218681380#1 -218681380#0 -520307305#4 -520307305#3 1279010544#0 420187959#1 420187959#2 420187959#3 420187959#4 420187959#5 381452143#0 -381452151"/>
    </vehicle>
    <vehicle id="118" type="passenger" depart="469.45">
        <route edges="37928420 520307305#0 520307305#1 520307305#2 520307305#3 520307305#4 520307305#5 218681380#1 218681380#2 218681380#3"/>
    </vehicle>
    <vehicle id="119" type="passenger" depart="473.42">
        <route edges="381452118#2 381452118#3 381452118#4 381452118#5 -218681380#2 -218681380#1 -218681380#0 -520307305#4 -520307305#3 1279010544#0 381452103#0 -381452170#1"/>
    </vehicle>
    <vehicle id="120" type="passenger" depart="477.40">
        <route edges="-381452182 381452170#1 -381452103#0"/>
    </vehicle>
    <vehicle id="121" type="passenger" depart="481.38">
        <route edges="-381458581#1 239357573#1"/>
    </vehicle>
    <vehicle id="122" type="passenger" depart="485.36">
        <route edges="-381452118#0 520307305#5"/>
    </vehicle>
    <vehicle id="123" type="passenger" depart="489.34">
        <route edges="-381452143#0 -420187959#5 -420187959#4 -117914354 381452170#0"/>
    </vehicle>
    <vehicle id="124" type="passenger" depart="493.32">
        <route edges="-420187959#3 -420187959#2 -420187959#1 -1279010544#0 520307305#3 520307305#4 520307305#5 -381458592#2 -381458592#1"/>
    </vehicle>
    <vehicle id="125" type="passenger" depart="497.29">
        <route edges="-420187959#8 -420187959#7 -420187959#6 -420187959#5 -420187959#4 -420187959#3 -420187959#2 -420187959#1 -1279010544#0 -239357573#3 -239357573#2 -381458589#0"/>
    </vehicle>
    <vehicle id="126" type="passenger" depart="501.27">
        <route edges="381452165#0 381452126#1 -381452118#0 -520307305#4 -520307305#3 1279010544#0 420187959#1 420187959#2 420187959#3 420187959#4"/>
    </vehicle>
    <vehicle id="127" type="passenger" depart="505.25">
        <route edges="420317544#2 -420187959#2 -420187959#1 -1279010544#0 520307305#3 381452098"/>
    </vehicle>
    <vehicle id="128" type="passenger" depart="509.23">
        <route edges="381452108 -420187959#7 -420187959#6 -420187959#5 -420187959#4 -420187959#3 -420187959#2 -420187959#1 -1279010544#0 520307305#3 520307305#4 520307305#5 -381458592#2 -381458592#1"/>
    </vehicle>
    <vehicle id="129" type="passenger" depart="513.21">
        <route edges="381452123#1 381452118#4 381452118#5 -218681380#2 -218681380#1 -218681380#0 -520307305#4 -520307305#3 -520307305#2 -520307305#1 -520307305#0"/>
    </vehicle>
    <vehicle id="130" type="passenger" depart="517.19">
        <route edges="-117914352#0 -420317540 -420187959#3 -420187959#2 -420187959#1 381452103#0"/>
    </vehicle>
    <vehicle id="131" type="passenger" depart="521.16">
        <route edges="244215552#0 -420317543#1 420317544#2 -420187959#2 -420187959#1 -1279010544#0 520307305#3 520307305#4 520307305#5 218681380#1 -381458600"/>
    </vehicle>
    <vehicle id="132" type="passenger" depart="525.14">
        <route edges="239357573#3 1279010544#0 420187959#1 420187959#2 420187959#3 420187959#4 420187959#5 420187959#6 420187959#7 420187959#8 420187959#9 420187959#10"/>
    </vehicle>
    <vehicle id="133" type="passenger" depart="529.12">
        <route edges="-381458581#1 239357573#1 239357573#2 239357573#3 520307305#3 520307305#4 381452118#0 381452118#1"/>
    </vehicle>
    <vehicle id="134" type="passenger" depart="533.10">
        <route edges="-420187959#11 -420187959#10 -420187959#9 -420187959#8 -420187959#7 -420187959#6 -420187959#5 -420187959#4 -420187959#3 -420317544#2 -420317543#0"/>
    </vehicle>
    <vehicle id="135" type="passenger" depart="537.08">