<?xml version="1.0" encoding="UTF-8"?>

<!-- generated on 2026-04-17 02:58:48.213356 by Eclipse SUMO randomTrips.py v1.26.0
<configuration>
    <net-file value="/Users/junlee/Desktop/2026-1/js/result/tradeoff_pet_top12_seed12_60min_20260417_025716/sumo_nets/cw_8340/network.net.xml"/>
    <output-trip-file value="/Users/junlee/Desktop/2026-1/js/result/tradeoff_pet_top12_seed12_60min_20260417_025716/sumo_nets/cw_8340/routes_seed46.trips.xml"/>
    <route-file value="/Users/junlee/Desktop/2026-1/js/result/tradeoff_pet_top12_seed12_60min_20260417_025716/sumo_nets/cw_8340/routes_seed46.rou.xml"/>
    <vehicle-class value="passenger"/>
    <seed value="46"/>
    <period value="3.5698933331519274"/>
</configuration>
-->

<routes xmlns:xsi="http://www.w3.org/2001/XMLSchema-instance" xsi:noNamespaceSchemaLocation="http://sumo.dlr.de/xsd/routes_file.xsd">
    <vType id="passenger" vClass="passenger"/>
    <trip id="0" depart="0.00" from="239357573#3" to="420187959#3" type="passenger"/>
    <trip id="1" depart="3.57" from="-381452165#0" to="117914352#1" type="passenger"/>
    <trip id="2" depart="7.14" from="239357573#2" to="420317544#2" type="passenger"/>
    <trip id="3" depart="10.71" from="-117914354" to="-239357573#1" type="passenger"/>
    <trip id="4" depart="14.28" from="-420187959#1" to="420187959#10" type="passenger"/>
    <trip id="5" depart="17.85" from="420317543#0" to="1279010544#0" type="passenger"/>
    <trip id="6" depart="21.42" from="520307305#2" to="420317543#1" type="passenger"/>
    <trip id="7" depart="24.99" from="-520307305#1" to="-381452118#4" type="passenger"/>
    <trip id="8" depart="28.56" from="-520307305#0" to="-239357573#2" type="passenger"/>
    <trip id="9" depart="32.13" from="381452165#1" to="218681380#2" type="passenger"/>
    <trip id="10" depart="35.70" from="-381452098" to="-381452165#0" type="passenger"/>
    <trip id="11" depart="39.27" from="117914345#0" to="381452182" type="passenger"/>
    <trip id="12" depart="42.84" from="-381452170#1" to="-381452104" type="passenger"/>
    <trip id="13" depart="46.41" from="-420187959#2" to="-239357573#1" type="passenger"/>
    <trip id="14" depart="49.98" from="-420187959#11" to="420187959#5" type="passenger"/>
    <trip id="15" depart="53.55" from="-381452123#0" to="-381458600" type="passenger"/>
    <trip id="16" depart="57.12" from="381452170#1" to="-381452143#0" type="passenger"/>
    <trip id="17" depart="60.69" from="-381452103#0" to="-381452165#2" type="passenger"/>
    <trip id="18" depart="64.26" from="381452103#0" to="381452143#0" type="passenger"/>
    <trip id="19" depart="67.83" from="381452118#5" to="-239357573#1" type="passenger"/>
    <trip id="20" depart="71.40" from="-381452182" to="-381452108" type="passenger"/>
    <trip id="21" depart="74.97" from="239357573#2" to="-381452123#0" type="passenger"/>
    <trip id="22" depart="78.54" from="1279010544#0" to="-239357573#1" type="passenger"/>
    <trip id="23" depart="82.11" from="-375125209" to="420187959#3" type="passenger"/>
    <trip id="24" depart="85.68" from="-381452118#5" to="-117914345#0" type="passenger"/>
    <trip id="25" depart="89.25" from="381452143#0" to="-381452126#0" type="passenger"/>
    <trip id="26" depart="92.82" from="420317544#1" to="-117914354" type="passenger"/>
    <trip id="27" depart="96.39" from="381452118#1" to="-218681380#0" type="passenger"/>
    <trip id="28" depart="99.96" from="381452118#2" to="-381452118#1" type="passenger"/>
    <trip id="29" depart="103.53" from="-420187959#5" to="381452182" type="passenger"/>
    <trip id="30" depart="107.10" from="381458600" to="381452165#0" type="passenger"/>
    <trip id="31" depart="110.67" from="-520307305#0" to="381452126#1" type="passenger"/>
    <trip id="32" depart="114.24" from="-381458600" to="-381452118#1" type="passenger"/>
    <trip id="33" depart="117.81" from="-218681380#0" to="-218681380#2" type="passenger"/>
    <trip id="34" depart="121.38" from="-420187959#1" to="381452118#3" type="passenger"/>
    <trip id="35" depart="124.95" from="381452143#1" to="420187959#8" type="passenger"/>
    <trip id="36" depart="128.52" from="420317540" to="-239357573#0" type="passenger"/>
    <trip id="37" depart="132.09" from="-381458592#2" to="218681380#3" type="passenger"/>
    <trip id="38" depart="135.66" from="-381452165#1" to="420187959#8" type="passenger"/>
    <trip id="39" depart="139.23" from="-420187959#10" to="420187959#7" type="passenger"/>
    <trip id="40" depart="142.80" from="420317543#0" to="381452118#3" type="passenger"/>
    <trip id="41" depart="146.37" from="-381452170#1" to="-239357573#0" type="passenger"/>
    <trip id="42" depart="149.94" from="520307305#5" to="420317543#0" type="passenger"/>
    <trip id="43" depart="153.51" from="-520307305#3" to="-239357573#0" type="passenger"/>
    <trip id="44" depart="157.08" from="381452165#2" to="-381458592#2" type="passenger"/>
    <trip id="45" depart="160.65" from="-420317543#1" to="520307305#3" type="passenger"/>
    <trip id="46" depart="164.22" from="420317540" to="420187959#2" type="passenger"/>
    <trip id="47" depart="167.78" from="37928420" to="381452143#0" type="passenger"/>
    <trip id="48" depart="171.35" from="-117914345#1" to="420317540" type="passenger"/>
    <trip id="49" depart="174.92" from="-381452118#4" to="-117914345#0" type="passenger"/>
    <trip id="50" depart="178.49" from="381452118#2" to="381452165#1" type="passenger"/>
    <trip id="51" depart="182.06" from="381452143#0" to="-239357573#3" type="passenger"/>
    <trip id="52" depart="185.63" from="-381452165#0" to="218681380#2" type="passenger"/>
    <trip id="53" depart="189.20" from="37928420" to="381452165#1" type="passenger"/>
    <trip id="54" depart="192.77" from="-117914345#1" to="381452118#3" type="passenger"/>
    <trip id="55" depart="196.34" from="-381452143#0" to="-420187959#3" type="passenger"/>
    <trip id="56" depart="199.91" from="-381452118#3" to="117914345#1" type="passenger"/>
    <trip id="57" depart="203.48" from="-381452167" to="381452103#1" type="passenger"/>
    <trip id="58" depart="207.05" from="-381458581#1" to="-381452108" type="passenger"/>
    <trip id="59" depart="210.62" from="-420187959#10" to="-381458592#2" type="passenger"/>
    <trip id="60" depart="214.19" from="-381458592#1" to="520307305#5" type="passenger"/>
    <trip id="61" depart="217.76" from="239357573#3" to="420187959#4" type="passenger"/>
    <trip id="62" depart="221.33" from="381452118#0" to="520307305#3" type="passenger"/>
    <trip id="63" depart="224.90" from="-520307305#3" to="-520307305#3" type="passenger"/>
    <trip id="64" depart="228.47" from="-381452170#1" to="-381452165#1" type="passenger"/>
    <trip id="65" depart="232.04" from="381452118#2" to="420317543#1" type="passenger"/>
    <trip id="66" depart="235.61" from="117914354" to="-381452123#1" type="passenger"/>
    <trip id="67" depart="239.18" from="381452126#1" to="381458592#1" type="passenger"/>
    <trip id="68" depart="242.75" from="420317544#1" to="-420317544#1" type="passenger"/>
    <trip id="69" depart="246.32" from="-381452103#1" to="381452123#0" type="passenger"/>
    <trip id="70" depart="249.89" from="381458589#0" to="-218681380#1" type="passenger"/>
    <trip id="71" depart="253.46" from="381458592#2" to="420187959#11" type="passenger"/>
    <trip id="72" depart="257.03" from="-218681380#3" to="381452103#0" type="passenger"/>
    <trip id="73" depart="260.60" from="-381452098" to="117914354" type="passenger"/>
    <trip id="74" depart="264.17" from="-381452182" to="117914345#0" type="passenger"/>
    <trip id="75" depart="267.74" from="381452104" to="381452182" type="passenger"/>
    <trip id="76" depart="271.31" from="-420317544#2" to="-381452118#3" type="passenger"/>
    <trip id="77" depart="274.88" from="-420187959#10" to="-420317543#1" type="passenger"/>
    <trip id="78" depart="278.45" from="-420187959#11" to="-381452143#0" type="passenger"/>
    <trip id="79" depart="282.02" from="520307305#3" to="-420187959#4" type="passenger"/>
    <trip id="80" depart="285.59" from="-117914345#0" to="-381452165#2" type="passenger"/>
    <trip id="81" depart="289.16" from="381452170#1" to="381452143#1" type="passenger"/>
    <trip id="82" depart="292.73" from="-520307305#1" to="-218681380#1" type="passenger"/>
    <trip id="83" depart="296.30" from="-420187959#11" to="420317540" type="passenger"/>
    <trip id="84" depart="299.87" from="-381452118#1" to="-37928420" type="passenger"/>
    <trip id="85" depart="303.44" from="-420317544#1" to="-117914354" type="passenger"/>
    <trip id="86" depart="307.01" from="420317540" to="420187959#10" type="passenger"/>
    <trip id="87" depart="310.58" from="-381452118#3" to="420187959#5" type="passenger"/>
    <trip id="88" depart="314.15" from="520307305#3" to="381452170#0" type="passenger"/>
    <trip id="89" depart="317.72" from="381452170#1" to="-381452108" type="passenger"/>
    <trip id="90" depart="321.29" from="-381452165#1" to="-520307305#3" type="passenger"/>
    <trip id="91" depart="324.86" from="-381452123#1" to="420187959#11" type="passenger"/>
    <trip id="92" depart="328.43" from="-420187959#7" to="381452118#1" type="passenger"/>
    <trip id="93" depart="332.00" from="-420187959#1" to="420187959#3" type="passenger"/>
    <trip id="94" depart="335.57" from="420187959#5" to="381452118#0" type="passenger"/>
    <trip id="95" depart="339.14" from="-381452118#4" to="-239357573#3" type="passenger"/>
    <trip id="96" depart="342.71" from="420187959#3" to="-381452123#1" type="passenger"/>
    <trip id="97" depart="346.28" from="-117914354" to="420187959#4" type="passenger"/>
    <trip id="98" depart="349.85" from="420317543#0" to="-420187959#4" type="passenger"/>
    <trip id="99" depart="353.42" from="-420187959#2" to="381452165#0" type="passenger"/>
    <trip id="100" depart="356.99" from="381452143#1" to="-381458592#1" type="passenger"/>
    <trip id="101" depart="360.56" from="-218681380#2" to="-381452118#0" type="passenger"/>
    <trip id="102" depart="364.13" from="-381452170#1" to="-117914354" type="passenger"/>
    <trip id="103" depart="367.70" from="117914354" to="-381452170#0" type="passenger"/>
    <trip id="104" depart="371.27" from="-420187959#5" to="381452126#1" type="passenger"/>
    <trip id="105" depart="374.84" from="420187959#6" to="420187959#10" type="passenger"/>
    <trip id="106" depart="378.41" from="117914352#0" to="420187959#12" type="passenger"/>
    <trip id="107" depart="381.98" from="-381458592#1" to="381452103#1" type="passenger"/>
    <trip id="108" depart="385.55" from="-381458581#1" to="420187959#7" type="passenger"/>
    <trip id="109" depart="389.12" from="-420187959#7" to="-218681380#0" type="passenger"/>
    <trip id="110" depart="392.69" from="381452170#1" to="-381452118#3" type="passenger"/>
    <trip id="111" depart="396.26" from="420187959#2" to="420187959#10" type="passenger"/>
    <trip id="112" depart="399.83" from="420187959#5" to="-218681380#2" type="passenger"/>
    <trip id="113" depart="403.40" from="-381458592#2" to="-218681380#1" type="passenger"/>
    <trip id="114" depart="406.97" from="-1279010544#0" to="-420317544#1" type="passenger"/>
    <trip id="115" depart="410.54" from="244215552#0" to="-218681380#0" type="passenger"/>
    <trip id="116" depart="414.11" from="-381452118#1" to="381452118#0" type="passenger"/>
    <trip id="117" depart="417.68" from="-420317543#1" to="-420187959#5" type="passenger"/>
    <trip id="118" depart="421.25" from="-420187959#4" to="218681380#2" type="passenger"/>
    <trip id="119" depart="424.82" from="420317544#1" to="-381452118#5" type="passenger"/>
    <trip id="120" depart="428.39" from="381452118#4" to="-381452104" type="passenger"/>
    <trip id="121" depart="431.96" from="381458592#0" to="117914354" type="passenger"/>
    <trip id="122" depart="435.53" from="-381452123#0" to="381452126#1" type="passenger"/>
    <trip id="123" depart="439.10" from="420187959#5" to="381452165#0" type="passenger"/>
    <trip id="124" depart="442.67" from="520307305#0" to="-381452118#3" type="passenger"/>
    <trip id="125" depart="446.24" from="520307305#5" to="420187959#3" type="passenger"/>
    <trip id="126" depart="449.81" from="-420187959#2" to="218681380#1" type="passenger"/>
    <trip id="127" depart="453.38" from="117914345#0" to="-381452126#1" type="passenger"/>
    <trip id="128" depart="456.95" from="-520307305#4" to="420317543#0" type="passenger"/>
    <trip id="129" depart="460.52" from="420187959#5" to="-381452165#2" type="passenger"/>
    <trip id="130" depart="464.09" from="-218681380#1" to="-420317544#0" type="passenger"/>
    <trip id="131" depart="467.66" from="37928420" to="420317543#1" type="passenger"/>
    <trip id="132" depart="471.23" from="-381452182" to="381458581#1" type="passenger"/>
    <trip id="133" depart="474.80" from="239357573#0" to="-37928420" type="passenger"/>
    <trip id="134" depart="478.37" from="-420317544#1" to="381452098" type="passenger"/>
    <trip id="135" depart="481.94" from="381452170#1" to="420187959#9" type="passenger"/>
    <trip id="136" depart="485.51" from="239357573#0" to="-381452118#2" type="passenger"/>
    <trip id="137" depart="489.08" from="520307305#2" to="381458592#2" type="passenger"/>
    <trip id="138" depart="492.65" from="-520307305#1" to="117914352#0" type="passenger"/>
    <trip id="139" depart="496.22" from="520307305#1" to="-218681380#2" type="passenger"/>
    <trip id="140" depart="499.79" from="381452118#1" to="117914345#1" type="passenger"/>
    <trip id="141" depart="503.35" from="520307305#4" to="-381452123#0" type="passenger"/>
    <trip id="142" depart="506.92" from="420317543#0" to="-381452123#1" type="passenger"/>
    <trip id="143" depart="510.49" from="-420187959#3" to="420187959#2" type="passenger"/>
    <trip id="144" depart="514.06" from="-420187959#7" to="-381452126#1" type="passenger"/>
    <trip id="145" depart="517.63" from="-381458592#1" to="-520307305#0" type="passenger"/>
    <trip id="146" depart="521.20" from="-520307305#3" to="-420187959#2" type="passenger"/>
    <trip id="147" depart="524.77" from="-381452182" to="520307305#4" type="passenger"/>
    <trip id="148" depart="528.34" from="381452118#4" to="-420187959#2" type="passenger"/>
    <trip id="149" depart="531.91" from="520307305#4" to="381452143#0" type="passenger"/>
    <trip id="150" depart="535.48" from="-381452143#1" to="420187959#2" type="passenger"/>
    <trip id="151" depart="539.05" from="117914345#0" to="-381452165#2" type="passenger"/>
    <trip id="152" depart="542.62" from="-381452118#0" to="420187959#2" type="passenger"/>
    <trip id="153" depart="546.19" from="-381452118#2" to="381452143#0" type="passenger"/>
    <trip id="154" depart="549.76" from="-520307305#2" to="-381452143#0" type="passenger"/>
    <trip id="155" depart="553.33" from="-520307305#4" to="-1279010544#0" type="passenger"/>
    <trip id="156" depart="556.90" from="-520307305#0" to="-1279010544#0" type="passenger"/>
    <trip id="157" depart="560.47" from="-420317540" to="-1279010544#0" type="passenger"/>
    <trip id="158" depart="564.04" from="420187959#1" to="381452170#0" type="passenger"/>
    <trip id="159" depart="567.61" from="381458600" to="-381452123#0" type="passenger"/>
    <trip id="160" depart="571.18" from="-520307305#0" to="244215552#0" type="passenger"/>
    <trip id="161" depart="574.75" from="381458592#0" to="-420317543#1" type="passenger"/>
    <trip id="162" depart="578.32" from="-381452123#0" to="420187959#7" type="passenger"/>
    <trip id="163" depart="581.89" from="420187959#4" to="-381452104" type="passenger"/>
    <trip id="164" depart="585.46" from="520307305#1" to="381452167" type="passenger"/>
    <trip id="165" depart="589.03" from="381452170#1" to="381458592#2" type="passenger"/>
    <trip id="166" depart="592.60" from="420187959#1" to="420317540" type="passenger"/>
    <trip id="167" depart="596.17" from="117914352#0" to="420317544#2" type="passenger"/>
    <trip id="168" depart="599.74" from="520307305#1" to="420187959#6" type="passenger"/>
    <trip id="169" depart="603.31" from="-381458592#1" to="420187959#5" type="passenger"/>
    <trip id="170" depart="606.88" from="1279010544#0" to="-420317543#0" type="passenger"/>
    <trip id="171" depart="610.45" from="-520307305#0" to="-381452151" type="passenger"/>
    <trip id="172" depart="614.02" from="381452165#0" to="381452126#1" type="passenger"/>
    <trip id="173" depart="617.59" from="381452103#0" to="-420317543#1" type="passenger"/>
    <trip id="174" depart="621.16" from="117914352#0" to="381452118#4" type="passenger"/>
    <trip id="175" depart="624.73" from="117914345#0" to="-381452118#0" type="passenger"/>
    <trip id="176" depart="628.30" from="-381452165#0" to="420187959#11" type="passenger"/>
    <trip id="177" depart="631.87" from="381452123#1" to="-381452104" type="passenger"/>
    <trip id="178" depart="635.44" from="381452118#3" to="-239357573#2" type="passenger"/>
    <trip id="179" depart="639.01" from="-1279010544#0" to="420187959#3" type="passenger"/>
    <trip id="180" depart="642.58" from="381452118#2" to="117914352#1" type="passenger"/>
    <trip id="181" depart="646.15" from="520307305#2" to="381452098" type="passenger"/>
    <trip id="182" depart="649.72" from="381452118#0" to="-420317544#0" type="passenger"/>
    <trip id="183" depart="653.29" from="381452118#0" to="420317544#2" type="passenger"/>
    <trip id="184" depart="656.86" from="381452165#0" to="381458581#1" type="passenger"/>
    <trip id="185" depart="660.43" from="-381452165#0" to="420187959#10" type="passenger"/>
    <trip id="186" depart="664.00" from="520307305#5" to="381452118#2" type="passenger"/>
    <trip id="187" depart="667.57" from="-381452165#1" to="381458592#1" type="passenger"/>
    <trip id="188" depart="671.14" from="-381452126#0" to="381452143#0" type="passenger"/>
    <trip id="189" depart="674.71" from="381452143#1" to="420187959#4" type="passenger"/>
    <trip id="190" depart="678.28" from="-381452143#0" to="420317544#2" type="passenger"/>
    <trip id="191" depart="681.85" from="381458589#0" to="-381452118#0" type="passenger"/>
    <trip id="192" depart="685.42" from="381452126#1" to="-381458592#2" type="passenger"/>
    <trip id="193" depart="688.99" from="-420317543#0" to="381452165#2" type="passenger"/>
    <trip id="194" depart="692.56" from="-420187959#5" to="-381452170#1" type="passenger"/>
    <trip id="195" depart="696.13" from="-420187959#10" to="-420317543#0" type="passenger"/>
    <trip id="196" depart="699.70" from="381452143#1" to="117914345#0" type="passenger"/>
    <trip id="197" depart="703.27" from="-420187959#5" to="420317544#2" type="passenger"/>
    <trip id="198" depart="706.84" from="-420187959#9" to="-420187959#4" type="passenger"/>
    <trip id="199" depart="710.41" from="381452118#2" to="520307305#4" type="passenger"/>
    <trip id="200" depart="713.98" from="-381452126#1" to="420187959#3" type="passenger"/>
    <trip id="201" depart="717.55" from="381452103#0" to="-420317543#1" type="passenger"/>
    <trip id="202" depart="721.12" from="-381452118#4" to="420187959#3" type="passenger"/>
    <trip id="203" depart="724.69" from="-420317540" to="420317540" type="passenger"/>
    <trip id="204" depart="728.26" from="420187959#4" to="-239357573#2" type="passenger"/>
    <trip id="205" depart="731.83" from="381452118#4" to="-420317544#0" type="passenger"/>
    <trip id="206" depart="735.40" from="218681380#2" to="-218681380#2" type="passenger"/>
    <trip id="207" depart="738.97" from="-381452126#0" to="-117914345#0" type="passenger"/>
    <trip id="208" depart="742.54" from="-375125209" to="381452182" type="passenger"/>
    <trip id="209" depart="746.11" from="-420187959#10" to="-420187959#4" type="passenger"/>
    <trip id="210" depart="749.68" from="520307305#2" to="-239357573#0" type="passenger"/>
    <trip id="211" depart="753.25" from="-1279010544#0" to="381452126#1" type="passenger"/>
    <trip id="212" depart="756.82" from="-520307305#1" to="117914352#1" type="passenger"/>
    <trip id="213" depart="760.39" from="-381458600" to="420317544#2" type="passenger"/>
    <trip id="214" depart="763.96" from="239357573#0" to="-218681380#2" type="passenger"/>
    <trip id="215" depart="767.53" from="381452118#2" to="420187959#12" type="passenger"/>
    <trip id="216" depart="771.10" from="520307305#1" to="420317544#2" type="passenger"/>
    <trip id="217" depart="774.67" from="420317543#0" to="381458592#1" type="passenger"/>
    <trip id="218" depart="778.24" from="-117914354" to="381452182" type="passenger"/>
    <trip id="219" depart="781.81" from="-420187959#6" to="-420187959#2" type="passenger"/>
    <trip id="220" depart="785.38" from="-381452098" to="-420317544#0" type="passenger"/>
    <trip id="221" depart="788.95" from="-420187959#1" to="-381452165#2" type="passenger"/>
    <trip id="222" depart="792.52" from="420187959#1" to="-520307305#3" type="passenger"/>
    <trip id="223" depart="796.09" from="381452118#4" to="-381452118#0" type="passenger"/>
    <trip id="224" depart="799.66" from="381452118#0" to="381452165#2" type="passenger"/>
    <trip id="225" depart="803.23" from="-420187959#1" to="-381452118#0" type="passenger"/>
    <trip id="226" depart="806.80" from="-1279010544#0" to="117914345#0" type="passenger"/>
    <trip id="227" depart="810.37" from="-381458600" to="-239357573#0" type="passenger"/>
    <trip id="228" depart="813.94" from="381452123#0" to="381452170#0" type="passenger"/>
    <trip id="229" depart="817.51" from="239357573#2" to="-381452126#0" type="passenger"/>
    <trip id="230" depart="821.08" from="-381452103#1" to="244215552#1" type="passenger"/>
    <trip id="231" depart="824.65" from="117914352#1" to="420317543#0" type="passenger"/>
    <trip id="232" depart="828.22" from="239357573#2" to="-381458589#0" type="passenger"/>
    <trip id="233" depart="831.79" from="381452151" to="420317544#1" type="passenger"/>
    <trip id="234" depart="835.36" from="381452143#0" to="-381452165#1" type="passenger"/>
    <trip id="235" depart="838.92" from="-381452123#0" to="420187959#5" type="passenger"/>
    <trip id="236" depart="842.49" from="-381452123#0" to="-381458592#2" type="passenger"/>
    <trip id="237" depart="846.06" from="-420187959#7" to="-381452118#2" type="passenger"/>
    <trip id="238" depart="849.63" from="218681380#1" to="-117914352#0" type="passenger"/>
    <trip id="239" depart="853.20" from="-381452143#1" to="381452182" type="passenger"/>
    <trip id="240" depart="856.77" from="381452108" to="420187959#6" type="passenger"/>
    <trip id="241" depart="860.34" from="-381452182" to="-239357573#0" type="passenger"/>
    <trip id="242" depart="863.91" from="117914354" to="-381452165#1" type="passenger"/>
    <trip id="243" depart="867.48" from="-375125209" to="-420317543#0" type="passenger"/>
    <trip id="244" depart="871.05" from="-420187959#5" to="420317540" type="passenger"/>
    <trip id="245" depart="874.62" from="1279010544#0" to="381452123#0" type="passenger"/>
    <trip id="246" depart="878.19" from="-381452165#0" to="520307305#4" type="passenger"/>
    <trip id="247" depart="881.76" from="381458589#0" to="-381452126#1" type="passenger"/>
    <trip id="248" depart="885.33" from="-117914345#1" to="-381452118#3" type="passenger"/>
    <trip id="249" depart="888.90" from="-420187959#5" to="381452143#0" type="passenger"/>
    <trip id="250" depart="892.47" from="-381452165#1" to="-218681380#1" type="passenger"/>
    <trip id="251" depart="896.04" from="-381452118#1" to="-420317544#2" type="passenger"/>
    <trip id="252" depart="899.61" from="381458600" to="381452118#2" type="passenger"/>
    <trip id="253" depart="903.18" from="117914352#1" to="-381458592#1" type="passenger"/>
    <trip id="254" depart="906.75" from="218681380#1" to="-239357573#1" type="passenger"/>
    <trip id="255" depart="910.32" from="-117914354" to="420187959#1" type="passenger"/>
    <trip id="256" depart="913.89" from="-420317544#2" to="-420187959#2" type="passenger"/>
    <trip id="257" depart="917.46" from="-381452170#0" to="381452167" type="passenger"/>
    <trip id="258" depart="921.03" from="-381452118#2" to="-1279010544#0" type="passenger"/>
    <trip id="259" depart="924.60" from="-381452167" to="381458592#2" type="passenger"/>
    <trip id="260" depart="928.17" from="1279010544#0" to="381452123#1" type="passenger"/>
    <trip id="261" depart="931.74" from="-420187959#3" to="-117914354" type="passenger"/>
    <trip id="262" depart="935.31" from="-381452118#4" to="-37928420" type="passenger"/>
    <trip id="263" depart="938.88" from="-381452126#0" to="381458581#1" type="passenger"/>
    <trip id="264" depart="942.45" from="520307305#5" to="381452165#2" type="passenger"/>
    <trip id="265" depart="946.02" from="381452165#2" to="-520307305#0" type="passenger"/>
    <trip id="266" depart="949.59" from="-381458581#1" to="420187959#3" type="passenger"/>
    <trip id="267" depart="953.16" from="381452165#1" to="520307305#4" type="passenger"/>
    <trip id="268" depart="956.73" from="381452118#2" to="-381452170#1" type="passenger"/>
    <trip id="269" depart="960.30" from="-117914354" to="381452118#4" type="passenger"/>
    <trip id="270" depart="963.87" from="381452104" to="117914352#0" type="passenger"/>
    <trip id="271" depart="967.44" from="-520307305#1" to="381452143#1" type="passenger"/>
    <trip id="272" depart="971.01" from="381452118#1" to="-520307305#3" type="passenger"/>
    <trip id="273" depart="974.58" from="-381452118#3" to="-381452170#1" type="passenger"/>
    <trip id="274" depart="978.15" from="-420317543#1" to="-239357573#0" type="passenger"/>
    <trip id="275" depart="981.72" from="-520307305#0" to="381452118#0" type="passenger"/>
    <trip id="276" depart="985.29" from="-420317544#2" to="117914345#0" type="passenger"/>
    <trip id="277" depart="988.86" from="420187959#3" to="117914352#1" type="passenger"/>
    <trip id="278" depart="992.43" from="37928420" to="381458592#1" type="passenger"/>
    <trip id="279" depart="996.00" from="381452165#0" to="381452126#0" type="passenger"/>
    <trip id="280" depart="999.57" from="381452118#1" to="-381458592#2" type="passenger"/>
    <trip id="281" depart="1003.14" from="381458600" to="-381452170#0" type="passenger"/>
    <trip id="282" depart="1006.71" from="-420187959#7" to="420317544#1" type="passenger"/>
    <trip id="283" depart="1010.28" from="239357573#0" to="420187959#3" type="passenger"/>
    <trip id="284" depart="1013.85" from="-420317544#2" to="-381452165#0" type="passenger"/>
    <trip id="285" depart="1017.42" from="381452165#1" to="-420317544#0" type="passenger"/>
    <trip id="286" depart="1020.99" from="381452126#1" to="-37928420" type="passenger"/>
    <trip id="287" depart="1024.56" from="381452170#0" to="381458592#2" type="passenger"/>
    <trip id="288" depart="1028.13" from="381452118#2" to="-420317543#0" type="passenger"/>
    <trip id="289" depart="1031.70" from="-381452118#4" to="-239357573#2" type="passenger"/>
    <trip id="290" depart="1035.27" from="-381452165#0" to="-381452108" type="passenger"/>
    <trip id="291" depart="1038.84" from="-420187959#2" to="520307305#3" type="passenger"/>
    <trip id="292" depart="1042.41" from="420187959#4" to="-420317544#2" type="passenger"/>
    <trip id="293" depart="1045.98" from="381458592#2" to="375125209" type="passenger"/>
    <trip id="294" depart="1049.55" from="381452123#0" to="-381452165#2" type="passenger"/>
    <trip id="295" depart="1053.12" from="-381452126#0" to="420187959#4" type="passenger"/>
    <trip id="296" depart="1056.69" from="37928420" to="-381452126#0" type="passenger"/>
    <trip id="297" depart="1060.26" from="381452123#0" to="-381452104" type="passenger"/>
    <trip id="298" depart="1063.83" from="420187959#1" to="-381452118#4" type="passenger"/>
    <trip id="299" depart="1067.40" from="-381452103#1" to="-420187959#3" type="passenger"/>
    <trip id="300" depart="1070.97" from="-420187959#5" to="381452182" type="passenger"/>
    <trip id="301" depart="1074.54" from="420317544#1" to="-381452108" type="passenger"/>
    <trip id="302" depart="1078.11" from="239357573#2" to="-381452165#1" type="passenger"/>
    <trip id="303" depart="1081.68" from="-381452167" to="381452182" type="passenger"/>
    <trip id="304" depart="1085.25" from="-117914345#0" to="-420187959#3" type="passenger"/>
    <trip id="305" depart="1088.82" from="381452165#0" to="381452103#0" type="passenger"/>
    <trip id="306" depart="1092.39" from="218681380#2" to="420317540" type="passenger"/>
    <trip id="307" depart="1095.96" from="-117914345#1" to="-520307305#4" type="passenger"/>
    <trip id="308" depart="1099.53" from="520307305#0" to="381452118#0" type="passenger"/>
    <trip id="309" depart="1103.10" from="381458589#0" to="-381452123#0" type="passenger"/>
    <trip id="310" depart="1106.67" from="420187959#1" to="-381452104" type="passenger"/>
    <trip id="311" depart="1110.24" from="-420187959#6" to="381452103#0" type="passenger"/>
    <trip id="312" depart="1113.81" from="-420187959#4" to="420317544#2" type="passenger"/>
    <trip id="313" depart="1117.38" from="-381452123#0" to="420317543#0" type="passenger"/>
    <trip id="314" depart="1120.95" from="-381452143#0" to="520307305#4" type="passenger"/>
    <trip id="315" depart="1124.52" from="-381452098" to="375125209" type="passenger"/>
    <trip id="316" depart="1128.09" from="-420187959#9" to="117914345#1" type="passenger"/>
    <trip id="317" depart="1131.66" from="-218681380#2" to="-218681380#1" type="passenger"/>
    <trip id="318" depart="1135.23" from="-520307305#4" to="381452118#1" type="passenger"/>
    <trip id="319" depart="1138.80" from="381452108" to="-381458592#1" type="passenger"/>
    <trip id="320" depart="1142.37" from="-381452123#1" to="520307305#5" type="passenger"/>
    <trip id="321" depart="1145.94" from="-381452165#2" to="-381452118#2" type="passenger"/>