<?xml version="1.0" encoding="UTF-8"?>

<!-- generated on 2026-04-17 02:58:49.027592 by Eclipse SUMO randomTrips.py v1.26.0
<configuration>
    <net-file value="/Users/junlee/Desktop/2026-1/js/result/tradeoff_pet_top12_seed12_60min_20260417_025716/sumo_nets/cw_8340/network.net.xml"/>
    <output-trip-file value="/Users/junlee/Desktop/2026-1/js/result/tradeoff_pet_top12_seed12_60min_20260417_025716/sumo_nets/cw_8340/routes_seed47.trips.xml"/>
    <route-file value="/Users/junlee/Desktop/2026-1/js/result/tradeoff_pet_top12_seed12_60min_20260417_025716/sumo_nets/cw_8340/routes_seed47.rou.xml"/>
    <vehicle-class value="passenger"/>
    <seed value="47"/>
    <period value="3.9248457796389524"/>
</configuration>
-->

<routes xmlns:xsi="http://www.w3.org/2001/XMLSchema-instance" xsi:noNamespaceSchemaLocation="http://sumo.dlr.de/xsd/routes_file.xsd">
    <vType id="passenger" vClass="passenger"/>
    <trip id="0" depart="0.00" from="-420187959#2" to="-420317544#1" type="passenger"/>
    <trip id="1" depart="3.92" from="-420317544#1" to="-420187959#3" type="passenger"/>
    <trip id="2" depart="7.85" from="-218681380#0" to="-420317543#1" type="passenger"/>
    <trip id="3" depart="11.77" from="-117914352#0" to="-381452103#0" type="passenger"/>
    <trip id="4" depart="15.70" from="-520307305#2" to="218681380#2" type="passenger"/>
    <trip id="5" depart="19.62" from="420317540" to="420187959#8" type="passenger"/>
    <trip id="6" depart="23.55" from="239357573#0" to="-381452165#0" type="passenger"/>
    <trip id="7" depart="27.47" from="117914352#1" to="-420187959#5" type="passenger"/>
    <trip id="8" depart="31.40" from="520307305#0" to="-218681380#0" type="passenger"/>
    <trip id="9" depart="35.32" from="-420187959#5" to="381452123#1" type="passenger"/>
    <trip id="10" depart="39.25" from="381452165#2" to="-381452165#1" type="passenger"/>
    <trip id="11" depart="43.17" from="-1279010544#0" to="-420187959#2" type="passenger"/>
    <trip id="12" depart="47.10" from="1279010544#0" to="-381452170#0" type="passenger"/>
    <trip id="13" depart="51.02" from="381452118#1" to="420187959#6" type="passenger"/>
    <trip id="14" depart="54.95" from="-381452143#0" to="381452165#2" type="passenger"/>
    <trip id="15" depart="58.87" from="381452170#1" to="375125209" type="passenger"/>
    <trip id="16" depart="62.80" from="381452118#5" to="-381458592#1" type="passenger"/>
    <trip id="17" depart="66.72" from="381452170#1" to="-381452165#1" type="passenger"/>
    <trip id="18" depart="70.65" from="218681380#2" to="-381452170#1" type="passenger"/>
    <trip id="19" depart="74.57" from="117914354" to="-218681380#0" type="passenger"/>
    <trip id="20" depart="78.50" from="-381458600" to="381452182" type="passenger"/>
    <trip id="21" depart="82.42" from="-381452170#0" to="381452165#0" type="passenger"/>
    <trip id="22" depart="86.35" from="381458592#1" to="381452098" type="passenger"/>
    <trip id="23" depart="90.27" from="381452108" to="-381452143#0" type="passenger"/>
    <trip id="24" depart="94.20" from="-420317544#0" to="520307305#3" type="passenger"/>
    <trip id="25" depart="98.12" from="218681380#1" to="381458592#2" type="passenger"/>
    <trip id="26" depart="102.05" from="381458592#2" to="218681380#2" type="passenger"/>
    <trip id="27" depart="105.97" from="381458589#0" to="-420317544#2" type="passenger"/>
    <trip id="28" depart="109.90" from="420317540" to="-218681380#0" type="passenger"/>
    <trip id="29" depart="113.82" from="-381452170#0" to="381452118#1" type="passenger"/>
    <trip id="30" depart="117.75" from="117914352#0" to="381452118#5" type="passenger"/>
    <trip id="31" depart="121.67" from="-520307305#1" to="381452126#1" type="passenger"/>
    <trip id="32" depart="125.60" from="-117914352#0" to="-381452165#2" type="passenger"/>
    <trip id="33" depart="129.52" from="-420187959#12" to="520307305#5" type="passenger"/>
    <trip id="34" depart="133.44" from="520307305#0" to="381452123#1" type="passenger"/>
    <trip id="35" depart="137.37" from="-381452118#5" to="420317543#0" type="passenger"/>
    <trip id="36" depart="141.29" from="-381452103#1" to="-381452118#1" type="passenger"/>
    <trip id="37" depart="145.22" from="381458589#0" to="-420187959#3" type="passenger"/>
    <trip id="38" depart="149.14" from="-420187959#7" to="-381458589#0" type="passenger"/>
    <trip id="39" depart="153.07" from="-117914345#0" to="-381452118#0" type="passenger"/>
    <trip id="40" depart="156.99" from="-218681380#3" to="-117914354" type="passenger"/>
    <trip id="41" depart="160.92" from="-218681380#0" to="-381452123#1" type="passenger"/>
    <trip id="42" depart="164.84" from="117914345#0" to="117914345#0" type="passenger"/>
    <trip id="43" depart="168.77" from="381458589#0" to="381458600" type="passenger"/>
    <trip id="44" depart="172.69" from="-117914345#1" to="-239357573#2" type="passenger"/>
    <trip id="45" depart="176.62" from="-420187959#11" to="420187959#4" type="passenger"/>
    <trip id="46" depart="180.54" from="420187959#5" to="-381452165#1" type="passenger"/>
    <trip id="47" depart="184.47" from="-218681380#2" to="-381452118#0" type="passenger"/>
    <trip id="48" depart="188.39" from="218681380#1" to="-381452165#1" type="passenger"/>
    <trip id="49" depart="192.32" from="218681380#1" to="381452170#0" type="passenger"/>
    <trip id="50" depart="196.24" from="381452104" to="520307305#4" type="passenger"/>
    <trip id="51" depart="200.17" from="-420187959#9" to="-420187959#4" type="passenger"/>
    <trip id="52" depart="204.09" from="-381458592#2" to="420187959#12" type="passenger"/>
    <trip id="53" depart="208.02" from="-520307305#3" to="-381452118#2" type="passenger"/>
    <trip id="54" depart="211.94" from="520307305#2" to="-381452108" type="passenger"/>
    <trip id="55" depart="215.87" from="-420317544#2" to="381458581#1" type="passenger"/>
    <trip id="56" depart="219.79" from="420187959#1" to="-420317544#1" type="passenger"/>
    <trip id="57" depart="223.72" from="239357573#0" to="381452170#0" type="passenger"/>
    <trip id="58" depart="227.64" from="-218681380#3" to="381458581#1" type="passenger"/>
    <trip id="59" depart="231.57" from="381458589#0" to="117914345#0" type="passenger"/>
    <trip id="60" depart="235.49" from="-381452103#0" to="-381452165#2" type="passenger"/>
    <trip id="61" depart="239.42" from="381458592#0" to="-381452118#5" type="passenger"/>
    <trip id="62" depart="243.34" from="-117914352#0" to="-381452103#0" type="passenger"/>
    <trip id="63" depart="247.27" from="-420317544#2" to="-520307305#2" type="passenger"/>
    <trip id="64" depart="251.19" from="-381452182" to="218681380#2" type="passenger"/>
    <trip id="65" depart="255.11" from="381452123#1" to="420317540" type="passenger"/>
    <trip id="66" depart="259.04" from="520307305#1" to="-381452126#0" type="passenger"/>
    <trip id="67" depart="262.96" from="381452118#5" to="-218681380#1" type="passenger"/>
    <trip id="68" depart="266.89" from="-381452170#0" to="-520307305#4" type="passenger"/>
    <trip id="69" depart="270.81" from="-218681380#3" to="381458581#1" type="passenger"/>
    <trip id="70" depart="274.74" from="244215552#0" to="218681380#1" type="passenger"/>
    <trip id="71" depart="278.66" from="-420187959#9" to="381452123#0" type="passenger"/>
    <trip id="72" depart="282.59" from="117914352#0" to="-381458600" type="passenger"/>
    <trip id="73" depart="286.51" from="520307305#0" to="218681380#1" type="passenger"/>
    <trip id="74" depart="290.44" from="-420187959#3" to="-381452104" type="passenger"/>
    <trip id="75" depart="294.36" from="381452165#0" to="-420187959#5" type="passenger"/>
    <trip id="76" depart="298.29" from="-420187959#2" to="420187959#4" type="passenger"/>
    <trip id="77" depart="302.21" from="420317543#0" to="381452118#0" type="passenger"/>
    <trip id="78" depart="306.14" from="-381452170#0" to="-381452143#1" type="passenger"/>
    <trip id="79" depart="310.06" from="-381452126#1" to="420187959#2" type="passenger"/>
    <trip id="80" depart="313.99" from="-420317544#0" to="381452182" type="passenger"/>
    <trip id="81" depart="317.91" from="-420187959#1" to="381452118#5" type="passenger"/>
    <trip id="82" depart="321.84" from="-381452118#3" to="-520307305#4" type="passenger"/>
    <trip id="83" depart="325.76" from="-117914354" to="420187959#4" type="passenger"/>
    <trip id="84" depart="329.69" from="117914352#0" to="381452103#0" type="passenger"/>
    <trip id="85" depart="333.61" from="420187959#3" to="-381458592#2" type="passenger"/>
    <trip id="86" depart="337.54" from="-381458592#2" to="420317543#1" type="passenger"/>
    <trip id="87" depart="341.46" from="-420317543#0" to="117914345#1" type="passenger"/>
    <trip id="88" depart="345.39" from="520307305#0" to="117914352#0" type="passenger"/>
    <trip id="89" depart="349.31" from="117914352#0" to="-420187959#1" type="passenger"/>
    <trip id="90" depart="353.24" from="-117914352#0" to="381452098" type="passenger"/>
    <trip id="91" depart="357.16" from="420187959#5" to="420187959#3" type="passenger"/>
    <trip id="92" depart="361.09" from="420317540" to="244215552#1" type="passenger"/>
    <trip id="93" depart="365.01" from="244215552#0" to="381452103#1" type="passenger"/>
    <trip id="94" depart="368.94" from="-218681380#0" to="381452103#0" type="passenger"/>
    <trip id="95" depart="372.86" from="-381452123#0" to="-239357573#2" type="passenger"/>
    <trip id="96" depart="376.79" from="-420187959#9" to="-381452151" type="passenger"/>
    <trip id="97" depart="380.71" from="-381452118#5" to="375125209" type="passenger"/>
    <trip id="98" depart="384.63" from="-117914345#0" to="-381452118#2" type="passenger"/>
    <trip id="99" depart="388.56" from="-420187959#6" to="381452165#1" type="passenger"/>
    <trip id="100" depart="392.48" from="381452108" to="381452165#0" type="passenger"/>
    <trip id="101" depart="396.41" from="117914345#0" to="-381452103#0" type="passenger"/>
    <trip id="102" depart="400.33" from="381458592#0" to="-420317543#1" type="passenger"/>
    <trip id="103" depart="404.26" from="381452103#0" to="420187959#9" type="passenger"/>
    <trip id="104" depart="408.18" from="-520307305#4" to="-420317544#2" type="passenger"/>
    <trip id="105" depart="412.11" from="420187959#1" to="-420317540" type="passenger"/>
    <trip id="106" depart="416.03" from="117914345#0" to="-420317544#1" type="passenger"/>
    <trip id="107" depart="419.96" from="420187959#2" to="-381452118#1" type="passenger"/>
    <trip id="108" depart="423.88" from="381452126#1" to="117914345#0" type="passenger"/>
    <trip id="109" depart="427.81" from="381452118#1" to="-381452104" type="passenger"/>
    <trip id="110" depart="431.73" from="-420187959#2" to="-1279010544#0" type="passenger"/>
    <trip id="111" depart="435.66" from="381452104" to="-239357573#3" type="passenger"/>
    <trip id="112" depart="439.58" from="-381452143#1" to="381452118#1" type="passenger"/>
    <trip id="113" depart="443.51" from="117914345#0" to="381452143#0" type="passenger"/>
    <trip id="114" depart="447.43" from="381452165#2" to="-420187959#1" type="passenger"/>
    <trip id="115" depart="451.36" from="37928420" to="420317540" type="passenger"/>
    <trip id="116" depart="455.28" from="-218681380#2" to="381452143#1" type="passenger"/>
    <trip id="117" depart="459.21" from="-520307305#3" to="-381452165#1" type="passenger"/>
    <trip id="118" depart="463.13" from="381452103#0" to="-117914345#0" type="passenger"/>
    <trip id="119" depart="467.06" from="420187959#5" to="381452098" type="passenger"/>
    <trip id="120" depart="470.98" from="381452104" to="218681380#3" type="passenger"/>
    <trip id="121" depart="474.91" from="381458592#1" to="-381452104" type="passenger"/>
    <trip id="122" depart="478.83" from="-218681380#2" to="244215552#1" type="passenger"/>
    <trip id="123" depart="482.76" from="-381452165#1" to="420187959#4" type="passenger"/>
    <trip id="124" depart="486.68" from="381452143#0" to="-239357573#2" type="passenger"/>
    <trip id="125" depart="490.61" from="-381458592#1" to="381452118#1" type="passenger"/>
    <trip id="126" depart="494.53" from="381452118#5" to="-420187959#4" type="passenger"/>
    <trip id="127" depart="498.46" from="-1279010544#0" to="381458600" type="passenger"/>
    <trip id="128" depart="502.38" from="520307305#2" to="420187959#11" type="passenger"/>
    <trip id="129" depart="506.31" from="381452170#0" to="381452118#4" type="passenger"/>
    <trip id="130" depart="510.23" from="420317544#2" to="-420317544#1" type="passenger"/>
    <trip id="131" depart="514.15" from="218681380#1" to="381452167" type="passenger"/>
    <trip id="132" depart="518.08" from="381452118#5" to="-420187959#4" type="passenger"/>
    <trip id="133" depart="522.00" from="117914352#1" to="-420317544#0" type="passenger"/>
    <trip id="134" depart="525.93" from="-420317544#0" to="381452118#5" type="passenger"/>
    <trip id="135" depart="529.85" from="381452143#1" to="-117914354" type="passenger"/>
    <trip id="136" depart="533.78" from="520307305#2" to="-218681380#2" type="passenger"/>
    <trip id="137" depart="537.70" from="420317544#1" to="420187959#8" type="passenger"/>
    <trip id="138" depart="541.63" from="-420317544#0" to="244215552#0" type="passenger"/>
    <trip id="139" depart="545.55" from="381452151" to="-239357573#0" type="passenger"/>
    <trip id="140" depart="549.48" from="520307305#2" to="381452167" type="passenger"/>
    <trip id="141" depart="553.40" from="420317540" to="381452118#4" type="passenger"/>
    <trip id="142" depart="557.33" from="-520307305#0" to="420317540" type="passenger"/>
    <trip id="143" depart="561.25" from="117914352#0" to="381452123#1" type="passenger"/>
    <trip id="144" depart="565.18" from="-381452103#0" to="420317543#0" type="passenger"/>
    <trip id="145" depart="569.10" from="-381452126#0" to="-1279010544#0" type="passenger"/>
    <trip id="146" depart="573.03" from="-520307305#3" to="420317543#0" type="passenger"/>
    <trip id="147" depart="576.95" from="381452118#5" to="381452170#1" type="passenger"/>
    <trip id="148" depart="580.88" from="-218681380#3" to="381452165#2" type="passenger"/>
    <trip id="149" depart="584.80" from="381452118#0" to="420187959#2" type="passenger"/>
    <trip id="150" depart="588.73" from="-117914345#0" to="-420187959#3" type="passenger"/>
    <trip id="151" depart="592.65" from="-381452123#1" to="-381452143#1" type="passenger"/>
    <trip id="152" depart="596.58" from="520307305#1" to="381452103#0" type="passenger"/>
    <trip id="153" depart="600.50" from="381458592#0" to="381458600" type="passenger"/>
    <trip id="154" depart="604.43" from="-381458592#2" to="381452118#5" type="passenger"/>
    <trip id="155" depart="608.35" from="-420317540" to="-420317544#0" type="passenger"/>
    <trip id="156" depart="612.28" from="-420317540" to="381452167" type="passenger"/>
    <trip id="157" depart="616.20" from="520307305#1" to="-218681380#1" type="passenger"/>
    <trip id="158" depart="620.13" from="239357573#0" to="381452123#1" type="passenger"/>
    <trip id="159" depart="624.05" from="-520307305#3" to="-381458589#0" type="passenger"/>
    <trip id="160" depart="627.98" from="-218681380#2" to="-117914354" type="passenger"/>
    <trip id="161" depart="631.90" from="-381452123#1" to="-420317543#1" type="passenger"/>
    <trip id="162" depart="635.83" from="117914352#0" to="-420187959#3" type="passenger"/>
    <trip id="163" depart="639.75" from="520307305#2" to="420187959#4" type="passenger"/>
    <trip id="164" depart="643.67" from="520307305#5" to="381452103#1" type="passenger"/>
    <trip id="165" depart="647.60" from="-420317544#0" to="420187959#11" type="passenger"/>
    <trip id="166" depart="651.52" from="520307305#5" to="-239357573#1" type="passenger"/>
    <trip id="167" depart="655.45" from="-520307305#1" to="-239357573#0" type="passenger"/>
    <trip id="168" depart="659.37" from="-381452118#3" to="-381452165#0" type="passenger"/>
    <trip id="169" depart="663.30" from="-420317540" to="381458592#1" type="passenger"/>
    <trip id="170" depart="667.22" from="-381458592#1" to="-381452108" type="passenger"/>
    <trip id="171" depart="671.15" from="239357573#0" to="-117914352#0" type="passenger"/>
    <trip id="172" depart="675.07" from="117914354" to="218681380#1" type="passenger"/>
    <trip id="173" depart="679.00" from="-420187959#10" to="420317540" type="passenger"/>
    <trip id="174" depart="682.92" from="381452118#4" to="244215552#0" type="passenger"/>
    <trip id="175" depart="686.85" from="-420187959#10" to="381458600" type="passenger"/>
    <trip id="176" depart="690.77" from="1279010544#0" to="420187959#7" type="passenger"/>
    <trip id="177" depart="694.70" from="-381452098" to="-420187959#1" type="passenger"/>
    <trip id="178" depart="698.62" from="-218681380#0" to="-381452151" type="passenger"/>
    <trip id="179" depart="702.55" from="420187959#1" to="1279010544#0" type="passenger"/>
    <trip id="180" depart="706.47" from="381452103#0" to="-218681380#0" type="passenger"/>
    <trip id="181" depart="710.40" from="218681380#2" to="-218681380#2" type="passenger"/>
    <trip id="182" depart="714.32" from="381452118#5" to="381452118#0" type="passenger"/>
    <trip id="183" depart="718.25" from="-420187959#7" to="-420187959#4" type="passenger"/>
    <trip id="184" depart="722.17" from="381452126#1" to="-218681380#2" type="passenger"/>
    <trip id="185" depart="726.10" from="420317540" to="-520307305#2" type="passenger"/>
    <trip id="186" depart="730.02" from="381452143#1" to="-420187959#2" type="passenger"/>
    <trip id="187" depart="733.95" from="-381452118#5" to="-1279010544#0" type="passenger"/>
    <trip id="188" depart="737.87" from="239357573#1" to="381452118#5" type="passenger"/>
    <trip id="189" depart="741.80" from="-381452103#1" to="-381452151" type="passenger"/>
    <trip id="190" depart="745.72" from="-117914345#0" to="-420317544#1" type="passenger"/>
    <trip id="191" depart="749.65" from="-381452103#1" to="381452170#1" type="passenger"/>
    <trip id="192" depart="753.57" from="381452165#0" to="381452165#1" type="passenger"/>
    <trip id="193" depart="757.50" from="-420187959#5" to="381452118#1" type="passenger"/>
    <trip id="194" depart="761.42" from="520307305#5" to="-381452170#1" type="passenger"/>
    <trip id="195" depart="765.34" from="420187959#1" to="-381452118#3" type="passenger"/>
    <trip id="196" depart="769.27" from="-1279010544#0" to="-381452165#1" type="passenger"/>
    <trip id="197" depart="773.19" from="381452143#1" to="-381452118#0" type="passenger"/>
    <trip id="198" depart="777.12" from="117914352#0" to="-381452118#0" type="passenger"/>
    <trip id="199" depart="781.04" from="420187959#3" to="420317544#2" type="passenger"/>
    <trip id="200" depart="784.97" from="239357573#1" to="420187959#6" type="passenger"/>
    <trip id="201" depart="788.89" from="381452103#0" to="244215552#0" type="passenger"/>
    <trip id="202" depart="792.82" from="-117914352#0" to="381452182" type="passenger"/>
    <trip id="203" depart="796.74" from="381452108" to="-381452118#3" type="passenger"/>
    <trip id="204" depart="800.67" from="-381452165#0" to="-381452108" type="passenger"/>
    <trip id="205" depart="804.59" from="-520307305#2" to="381458600" type="passenger"/>
    <trip id="206" depart="808.52" from="-520307305#3" to="420187959#10" type="passenger"/>
    <trip id="207" depart="812.44" from="37928420" to="-420317543#0" type="passenger"/>
    <trip id="208" depart="816.37" from="420317543#0" to="-520307305#0" type="passenger"/>
    <trip id="209" depart="820.29" from="-381452123#0" to="-420317544#1" type="passenger"/>
    <trip id="210" depart="824.22" from="381458589#0" to="420187959#5" type="passenger"/>
    <trip id="211" depart="828.14" from="-520307305#3" to="-420317543#0" type="passenger"/>
    <trip id="212" depart="832.07" from="-420187959#5" to="-381458600" type="passenger"/>
    <trip id="213" depart="835.99" from="420187959#1" to="-218681380#0" type="passenger"/>
    <trip id="214" depart="839.92" from="381452165#2" to="-381458589#0" type="passenger"/>
    <trip id="215" depart="843.84" from="-520307305#0" to="-381452103#0" type="passenger"/>
    <trip id="216" depart="847.77" from="381452118#0" to="420187959#7" type="passenger"/>
    <trip id="217" depart="851.69" from="-381452118#2" to="-381452170#1" type="passenger"/>
    <trip id="218" depart="855.62" from="-381452118#3" to="420187959#3" type="passenger"/>
    <trip id="219" depart="859.54" from="381458592#1" to="-420317543#1" type="passenger"/>
    <trip id="220" depart="863.47" from="381452143#0" to="-381452118#3" type="passenger"/>
    <trip id="221" depart="867.39" from="420317544#1" to="-420187959#2" type="passenger"/>
    <trip id="222" depart="871.32" from="381452118#2" to="-381452143#0" type="passenger"/>
    <trip id="223" depart="875.24" from="520307305#2" to="381452118#4" type="passenger"/>
    <trip id="224" depart="879.17" from="-381452118#5" to="420187959#6" type="passenger"/>
    <trip id="225" depart="883.09" from="420317543#0" to="381452118#4" type="passenger"/>
    <trip id="226" depart="887.02" from="-381452165#2" to="381452126#0" type="passenger"/>
    <trip id="227" depart="890.94" from="117914352#1" to="420317543#0" type="passenger"/>
    <trip id="228" depart="894.86" from="420317544#2" to="-420187959#5" type="passenger"/>
    <trip id="229" depart="898.79" from="239357573#0" to="-381452165#0" type="passenger"/>
    <trip id="230" depart="902.71" from="381458592#0" to="218681380#2" type="passenger"/>
    <trip id="231" depart="906.64" from="381458592#0" to="-381452165#2" type="passenger"/>
    <trip id="232" depart="910.56" from="-218681380#0" to="420317544#1" type="passenger"/>
    <trip id="233" depart="914.49" from="37928420" to="381452165#0" type="passenger"/>
    <trip id="234" depart="918.41" from="381452143#1" to="420317543#0" type="passenger"/>
    <trip id="235" depart="922.34" from="-381452123#1" to="381458592#2" type="passenger"/>
    <trip id="236" depart="926.26" from="381452118#4" to="-520307305#3" type="passenger"/>
    <trip id="237" depart="930.19" from="218681380#1" to="218681380#1" type="passenger"/>
    <trip id="238" depart="934.11" from="-381452167" to="-381452118#2" type="passenger"/>
    <trip id="239" depart="938.04" from="381452118#4" to="117914352#1" type="passenger"/>
    <trip id="240" depart="941.96" from="381452165#0" to="381452118#4" type="passenger"/>
    <trip id="241" depart="945.89" from="-381452126#1" to="375125209" type="passenger"/>
    <trip id="242" depart="949.81" from="420187959#4" to="-381452170#0" type="passenger"/>
    <trip id="243" depart="953.74" from="381452118#1" to="-381452151" type="passenger"/>
    <trip id="244" depart="957.66" from="-381452165#2" to="381452098" type="passenger"/>
    <trip id="245" depart="961.59" from="-381452126#1" to="-520307305#0" type="passenger"/>
    <trip id="246" depart="965.51" from="-381452103#0" to="244215552#1" type="passenger"/>
    <trip id="247" depart="969.44" from="420187959#6" to="420187959#9" type="passenger"/>
    <trip id="248" depart="973.36" from="-420187959#12" to="-37928420" type="passenger"/>
    <trip id="249" depart="977.29" from="-381452126#1" to="381452170#0" type="passenger"/>
    <trip id="250" depart="981.21" from="-381452170#1" to="520307305#5" type="passenger"/>
    <trip id="251" depart="985.14" from="-381452143#0" to="381452123#0" type="passenger"/>
    <trip id="252" depart="989.06" from="-117914352#0" to="381452170#1" type="passenger"/>
    <trip id="253" depart="992.99" from="239357573#3" to="-381452104" type="passenger"/>
    <trip id="254" depart="996.91" from="-420317540" to="420317543#0" type="passenger"/>
    <trip id="255" depart="1000.84" from="420187959#2" to="381452167" type="passenger"/>
    <trip id="256" depart="1004.76" from="420187959#5" to="-381452151" type="passenger"/>
    <trip id="257" depart="1008.69" from="-381452103#0" to="381452123#1" type="passenger"/>
    <trip id="258" depart="1012.61" from="-420317544#1" to="381452170#1" type="passenger"/>
    <trip id="259" depart="1016.54" from="381452118#2" to="218681380#1" type="passenger"/>
    <trip id="260" depart="1020.46" from="520307305#5" to="381458592#1" type="passenger"/>
    <trip id="261" depart="1024.38" from="381458592#0" to="381452165#1" type="passenger"/>
    <trip id="262" depart="1028.31" from="381458592#0" to="-381452170#1" type="passenger"/>
    <trip id="263" depart="1032.23" from="239357573#3" to="-239357573#2" type="passenger"/>
    <trip id="264" depart="1036.16" from="-420317544#2" to="-381452151" type="passenger"/>
    <trip id="265" depart="1040.08" from="117914345#0" to="-381458592#1" type="passenger"/>
    <trip id="266" depart="1044.01" from="-420317543#1" to="520307305#5" type="passenger"/>
    <trip id="267" depart="1047.93" from="381452103#0" to="420187959#2" type="passenger"/>
    <trip id="268" depart="1051.86" from="381452108" to="420187959#4" type="passenger"/>
    <trip id="269" depart="1055.78" from="420187959#1" to="-381452126#0" type="passenger"/>
    <trip id="270" depart="1059.71" from="381452165#1" to="-1279010544#0" type="passenger"/>
    <trip id="271" depart="1063.63" from="37928420" to="117914352#1" type="passenger"/>
    <trip id="272" depart="1067.56" from="381452151" to="-381458592#2" type="passenger"/>
    <trip id="273" depart="1071.48" from="-381452126#0" to="-420187959#3" type="passenger"/>
    <trip id="274" depart="1075.41" from="420187959#4" to="381452118#0" type="passenger"/>
    <trip id="275" depart="1079.33" from="218681380#2" to="117914352#0" type="passenger"/>
    <trip id="276" depart="1083.26" from="381452165#0" to="420187959#2" type="passenger"/>
    <trip id="277" depart="1087.18" from="-420187959#4" to="-381452118#4" type="passenger"/>
    <trip id="278" depart="1091.11" from="381452143#1" to="-239357573#2" type="passenger"/>
    <trip id="279" depart="1095.03" from="-420187959#7" to="-520307305#2" type="passenger"/>
    <trip id="280" depart="1098.96" from="381452123#1" to="-381458592#2" type="passenger"/>
    <trip id="281" depart="1102.88" from="-520307305#3" to="381452103#1" type="passenger"/>
    <trip id="282" depart="1106.81" from="520307305#2" to="-420187959#2" type="passenger"/>
    <trip id="283" depart="1110.73" from="381452123#1" to="420187959#1" type="passenger"/>
    <trip id="284" depart="1114.66" from="-420317543#0" to="-381452170#0" type="passenger"/>
    <trip id="285" depart="1118.58" from="-420187959#6" to="-520307305#2" type="passenger"/>
    <trip id="286" depart="1122.51" from="-381452118#3" to="-381452123#1" type="passenger"/>
    <trip id="287" depart="1126.43" from="-381452165#0" to="-420187959#1" type="passenger"/>
    <trip id="288" depart="1130.36" from="-117914354" to="-117914352#0" type="passenger"/>
    <trip id="289" depart="1134.28" from="-381452182" to="218681380#3" type="passenger"/>
    <trip id="290" depart="1138.21" from="381452165#2" to="420317543#0" type="passenger"/>
    <trip id="291" depart="1142.13" from="-420317544#1" to="-218681380#2" type="passenger"/>
    <trip id="292" depart="1146.05" from="420317540" to="381452143#1" type="passenger"/>
    <trip id="293" depart="1149.98" from="381452151" to="-420317540" type="passenger"/>
    <trip id="294" depart="1153.90" from="-381452123#1" to="-218681380#1" type="passenger"/>
    <trip id="295" depart="1157.83" from="381452118#4" to="1279010544#0" type="passenger"/>
    <trip id="296" depart="1161.75" from="-375125209" to="-1279010544#0" type="passenger"/>
    <trip id="297" depart="1165.68" from="1279010544#0" to="218681380#2" type="passenger"/>
    <trip id="298" depart="1169.60" from="-381452118#3" to="381458581#1" type="passenger"/>
    <trip id="299" depart="1173.53" from="420317544#2" to="-381458592#0" type="passenger"/>
    <trip id="300" depart="1177.45" from="381452118#5" to="117914345#1" type="passenger"/>
    <trip id="301" depart="1181.38" from="381458592#1" to="-381458592#0" type="passenger"/>
    <trip id="302" depart="1185.30" from="-381452167" to="1279010544#0" type="passenger"/>
    <trip id="303" depart="1189.23" from="520307305#1" to="381452170#0" type="passenger"/>
    <trip id="304" depart="1193.15" from="-381452167" to="420317544#2" type="passenger"/>
    <trip id="305" depart="1197.08" from="-1279010544#0" to="-381452118#2" type="passenger"/>
    <trip id="306" depart="1201.00" from="381452123#0" to="420187959#6" type="passenger"/>
    <trip id="307" depart="1204.93" from="381452126#1" to="-520307305#0" type="passenger"/>
    <trip id="308" depart="1208.85" from="381452126#1" to="381452182" type="passenger"/>
    <trip id="309" depart="1212.78" from="-420187959#1" to="218681380#2" type="passenger"/>
    <trip id="310" depart="1216.70" from="381452108" to="381458592#1" type="passenger"/>
    <trip id="311" depart="1220.63" from="117914352#0" to="-381458592#0" type="passenger"/>
    <trip id="312" depart="1224.55" from="520307305#5" to="381452165#2" type="passenger"/>
    <trip id="313" depart="1228.48" from="-218681380#1" to="381452170#1" type="passenger"/>
    <trip id="314" depart="1232.40" from="-381452123#0" to="420317540" type="passenger"/>
    <trip id="315" depart="1236.33" from="381452118#1" to="218681380#3" type="passenger"/>
    <trip id="316" depart="1240.25" from="381452103#0" to="-381458592#1" type="passenger"/>
    <trip id="317" depart="1244.18" from="381458592#1" to="-381452123#1" type="passenger"/>
    <trip id="318" depart="1248.10" from="-420317544#1" to="-381452103#0" type="passenger"/>
    <trip id="319" depart="1252.03" from="-381452126#0" to="381452167" type="passenger"/>
    <trip id="320" depart="1255.95" from="-520307305#3" to="420317544#1" type="passenger"/>
    <trip id="321" depart="1259.88" from="-381452118#0" to="381452143#0" type="passenger"/>