<?xml version="1.0" encoding="UTF-8"?>

<!-- generated on 2026-04-15 23:23:05.085236 by Eclipse SUMO randomTrips.py v1.26.0
<configuration>
    <net-file value="/Users/junlee/Desktop/2026-1/js/result/report_top12_seed4_2h/sumo_nets/cw_125895/network.net.xml"/>
    <output-trip-file value="/Users/junlee/Desktop/2026-1/js/result/report_top12_seed4_2h/sumo_nets/cw_125895/routes_seed45.trips.xml"/>
    <route-file value="/Users/junlee/Desktop/2026-1/js/result/report_top12_seed4_2h/sumo_nets/cw_125895/routes_seed45.rou.xml"/>
    <vehicle-class value="passenger"/>
    <seed value="45"/>
    <end value="1800.0"/>
    <period value="3.262691553859477"/>
</configuration>
-->

<!-- generated on 2026-04-15T23:23:05.052709+09:00 by Eclipse SUMO duarouter 1.26.0
<duarouterConfiguration xmlns:xsi="http://www.w3.org/2001/XMLSchema-instance" xsi:noNamespaceSchemaLocation="http://sumo.dlr.de/xsd/duarouterConfiguration.xsd">

    <input>
        <net-file value="/Users/junlee/Desktop/2026-1/js/result/report_top12_seed4_2h/sumo_nets/cw_125895/network.net.xml"/>
        <route-files value="/Users/junlee/Desktop/2026-1/js/result/report_top12_seed4_2h/sumo_nets/cw_125895/routes_seed45.trips.xml"/>
    </input>

    <output>
        <output-file value="/Users/junlee/Desktop/2026-1/js/result/report_top12_seed4_2h/sumo_nets/cw_125895/routes_seed45.rou.xml"/>
        <alternatives-output value="NUL"/>
    </output>

    <time>
        <begin value="0.0"/>
        <end value="1800.0"/>
    </time>

    <report>
        <no-warnings value="true"/>
        <ignore-errors value="true"/>
        <no-step-log value="true"/>
    </report>

</duarouterConfiguration>
-->

<routes xmlns:xsi="http://www.w3.org/2001/XMLSchema-instance" xsi:noNamespaceSchemaLocation="http://sumo.dlr.de/xsd/routes_file.xsd">
    <vType id="passenger" vClass="passenger"/>
    <vehicle id="0" type="passenger" depart="0.00">
        <route edges="-381746317#1 -381746321#0 -381746304#1 -381746304#0 920025287#4 519097168#2 519097168#4 218910324#0 -420187962#3 -420187962#2 -381458608#0 218681380#2"/>
    </vehicle>
    <vehicle id="1" type="passenger" depart="3.26">
        <route edges="-218960891#4 913717725 218681380#4 -519097168#4 -519097168#2 -519097168#1 -519097168#0 -413106892"/>
    </vehicle>
    <vehicle id="2" type="passenger" depart="6.53">
        <route edges="-218960891#3 -218960891#2 375125202 920025287#0 920025287#1 920025287#2 -381746313 519097168#4 -218681380#4 -218681380#2 -218681380#1"/>
    </vehicle>
    <vehicle id="3" type="passenger" depart="9.79">
        <route edges="-381746321#1 -381746321#0 -381746304#1 -381746304#0 920025287#4 519097168#2 519097168#4 218910324#0 -420187962#3 -420187962#2 -420187962#1 -381458603#1 -381458603#0"/>
    </vehicle>
    <vehicle id="4" type="passenger" depart="13.05">
        <route edges="-420103660 -381746325#1 117770556#1 920025287#0 920025287#1 920025287#2 920025287#3 381746304#0 381746304#1 381746304#2 381746304#3 381746303#1"/>
    </vehicle>
    <vehicle id="5" type="passenger" depart="16.31">
        <route edges="-218910324#2 -218910324#1 -218910324#0 -218681380#4 -218681380#2 381458608#0"/>
    </vehicle>
    <vehicle id="6" type="passenger" depart="19.58">
        <route edges="-381458608#0 218681380#2 218681380#4 -218960891#4 381746315"/>
    </vehicle>
    <vehicle id="7" type="passenger" depart="22.84">
        <route edges="381746303#0 381746303#1 -381746304#0 920025287#4 -519097168#1 -519097168#0 -413106892 381746310 -381741957#1"/>
    </vehicle>
    <vehicle id="8" type="passenger" depart="26.10">
        <route edges="420187962#1 420187962#2 420187962#3 913718470 -519097168#2 -519097168#1 -519097168#0 381741961#0"/>
    </vehicle>
    <vehicle id="9" type="passenger" depart="29.36">
        <route edges="-218960891#3 -218960891#2 375125202 920025287#0 920025287#1 920025287#2 -381746313 -519097168#2"/>
    </vehicle>
    <vehicle id="10" type="passenger" depart="32.63">
        <route edges="381741958#2 381741929#1 381741929#2 -218910324#3 -218910324#2 -218910324#1 913718470 519097168#4"/>
    </vehicle>
    <vehicle id="11" type="passenger" depart="35.89">
        <route edges="381746310 381741932#0 381741932#1 381741964#2 519097166#0 519097168#1 519097168#2 519097168#4 -218960891#4 -218960891#3 -218960891#2 375125202 920025287#0 920025287#1"/>
    </vehicle>
    <vehicle id="12" type="passenger" depart="39.15">
        <route edges="-381458583#0 218681380#4 -218960891#4"/>
    </vehicle>
    <vehicle id="13" type="passenger" depart="42.41">
        <route edges="381746304#1 381746304#2 -381746317#1 -381746321#0"/>
    </vehicle>
    <vehicle id="14" type="passenger" depart="45.68">
        <route edges="-519097168#4 -519097168#2 -519097168#1 -458731949 -218910324#1 -218910324#0 -218681380#4 -218681380#2 -218681380#1 381458603#0 420314177"/>
    </vehicle>
    <vehicle id="15" type="passenger" depart="48.94">
        <route edges="381746304#0 381746304#1 381746304#2 -381746317#1 -381746321#0 -381746304#1 -381746304#0 920025287#4 -519097168#1 -519097168#0 -413106892 381746310 381741932#0"/>
    </vehicle>
    <vehicle id="16" type="passenger" depart="52.20">
        <route edges="458731949 -519097166#0 -381741964#2 381741932#2 381741925 381741964#1"/>
    </vehicle>
    <vehicle id="17" type="passenger" depart="55.47">
        <route edges="381746325#0 117770556#1 920025287#0 920025287#1 920025287#2 920025287#3 920025287#4 -519097168#1 -519097166#0 -381741964#2 381741932#2 381741932#3 381741927"/>
    </vehicle>
    <vehicle id="18" type="passenger" depart="58.73">
        <route edges="381741925 381741964#1 381741964#2 519097166#0 519097168#1 519097168#2 519097168#4 -218960891#4 -218960891#3 -218960891#2 -218960891#1 -218960891#0"/>
    </vehicle>
    <vehicle id="19" type="passenger" depart="61.99">
        <route edges="519097168#2 519097168#4 218910324#0 218910324#1 458731949 519097168#1"/>
    </vehicle>
    <vehicle id="20" type="passenger" depart="65.25">
        <route edges="-519097166#0 519097167#0 519097167#1 -218910324#2 -218910324#1 -420187962#3 -420187962#2 381458608#1"/>
    </vehicle>
    <vehicle id="21" type="passenger" depart="68.52">
        <route edges="-218681380#4 -218681380#2 381458608#0 420187962#2 -381458583#0 218681380#4 218910324#0"/>
    </vehicle>
    <vehicle id="22" type="passenger" depart="71.78">
        <route edges="381741932#0 381741932#1 381741964#2 519097166#0 519097168#1 -920025287#4 381746304#0 -381746303#1 -381746304#3"/>
    </vehicle>
    <vehicle id="23" type="passenger" depart="75.04">
        <route edges="-381458608#1 420187962#2 420187962#3 913718470 381746313 -920025287#2"/>
    </vehicle>
    <vehicle id="24" type="passenger" depart="78.30">
        <route edges="-381452100 218681380#2 218681380#4 218910324#0 218910324#1 218910324#2 -519097167#1 -519097167#0"/>
    </vehicle>
    <vehicle id="25" type="passenger" depart="81.57">
        <route edges="519097167#0 519097167#1 -218910324#2 -218910324#1 -218910324#0 -218681380#4 -218681380#2 -218681380#1 381458603#0"/>
    </vehicle>
    <vehicle id="26" type="passenger" depart="84.83">
        <route edges="-218910324#1 -218910324#0 -218681380#4 -218681380#2 381458608#0 420187962#2"/>
    </vehicle>
    <vehicle id="27" type="passenger" depart="88.09">
        <route edges="381741934 381741929#2 -218910324#3 -218910324#2 -218910324#1 913718470 519097168#4 218910324#0 218910324#1 218910324#2 218910324#3"/>
    </vehicle>
    <vehicle id="28" type="passenger" depart="91.36">
        <route edges="-381746325#0 218960891#1 218960891#2 218960891#3 381746315 920025287#2 -381746313"/>
    </vehicle>
    <vehicle id="29" type="passenger" depart="94.62">
        <route edges="-381741948#1 381741932#1 381741964#2 519097166#0 519097168#1 519097168#2 519097168#4 -218681380#4 -218681380#2 381458608#0"/>
    </vehicle>
    <vehicle id="30" type="passenger" depart="97.88">
        <route edges="-218910324#4 -218910324#3 -218910324#2 -218910324#1 913718470"/>
    </vehicle>
    <vehicle id="31" type="passenger" depart="101.14">
        <route edges="-381458583#2 -381458583#1 -381458583#0 -218681380#2 381458608#0"/>
    </vehicle>
    <vehicle id="32" type="passenger" depart="104.41">
        <route edges="381458603#1 420187962#1 420187962#2 -381458583#0 218681380#4 218910324#0 -420187962#3"/>
    </vehicle>
    <vehicle id="33" type="passenger" depart="107.67">
        <route edges="-381746321#0 -381746304#1 -381746304#0 -920025287#3 -920025287#2 -920025287#1 -920025287#0"/>
    </vehicle>
    <vehicle id="34" type="passenger" depart="110.93">
        <route edges="-420187962#3 -381458583#0 218681380#4 -218960891#4 381746315 920025287#2"/>
    </vehicle>
    <vehicle id="35" type="passenger" depart="114.19">
        <route edges="381741932#3 381741927 519097167#1 218910324#3"/>
    </vehicle>
    <vehicle id="36" type="passenger" depart="117.46">
        <route edges="381741937 381741958#2 381741929#1 381741929#2 -218910324#3 -218910324#2 -218910324#1 -218910324#0 -218960891#4 913717725 218681380#4"/>
    </vehicle>
    <vehicle id="37" type="passenger" depart="120.72">
        <route edges="-381741925 381741932#3 381741932#4 -218910324#3 -218910324#2 -218910324#1 -218910324#0 -218681380#4"/>
    </vehicle>
    <vehicle id="38" type="passenger" depart="123.98">
        <route edges="920025287#2 920025287#3 920025287#4 -519097168#1 -519097168#0 -413106892 413106898"/>
    </vehicle>
    <vehicle id="39" type="passenger" depart="127.24">
        <route edges="-381458583#0 -218681380#2 -218681380#1 381458603#0"/>
    </vehicle>
    <vehicle id="40" type="passenger" depart="130.51">
        <route edges="381746315 920025287#2 920025287#3 920025287#4 -519097168#1 -519097166#0 519097167#0"/>
    </vehicle>
    <vehicle id="41" type="passenger" depart="133.77">
        <route edges="-218960891#2 375125202 920025287#0 920025287#1 920025287#2 -381746313 519097168#4 218910324#0 -420187962#3 -420187962#2 -381458608#0"/>
    </vehicle>
    <vehicle id="42" type="passenger" depart="137.03">
        <route edges="-920025286 920025287#0 920025287#1 920025287#2 -381746313 519097168#4 -218681380#4 381458583#0 381458583#1 381458583#2 381458593"/>
    </vehicle>
    <vehicle id="43" type="passenger" depart="140.30">
        <route edges="-218960891#4 913717725 218681380#4 218910324#0 218910324#1 218910324#2 218910324#3 -381741929#2 -381741929#1 -381741958#2 381741939"/>
    </vehicle>
    <vehicle id="44" type="passenger" depart="143.56">
        <route edges="381746304#1 381746304#2 -381746317#1 -381746321#0 -381746304#1 -381746304#0 -920025287#3 -920025287#2 -920025287#1"/>
    </vehicle>
    <vehicle id="45" type="passenger" depart="146.82">
        <route edges="420187962#1 420187962#2 420187962#3 218910324#1 218910324#2 -519097167#1"/>
    </vehicle>
    <vehicle id="46" type="passenger" depart="150.08">
        <route edges="420101309 381741964#1 381741932#2 381741932#3 381741927 -519097167#0"/>
    </vehicle>
    <vehicle id="47" type="passenger" depart="153.35">
        <route edges="-920025287#0 920025286 -381746325#1 -381746325#0 218960891#1 218960891#2 218960891#3 218960891#4 -519097168#4 -519097168#2 -519097168#1 -519097166#0"/>
    </vehicle>
    <vehicle id="48" type="passenger" depart="156.61">
        <route edges="381741961#0 381741961#1 519097167#0 519097167#1 -218910324#2 458731949"/>
    </vehicle>
    <vehicle id="49" type="passenger" depart="159.87">
        <route edges="-218960891#3 -218960891#2 375125202 920025287#0 920025287#1 920025287#2 -381746313 519097168#4 -218681380#4 381458583#0 381458583#1 381458583#2"/>
    </vehicle>
    <vehicle id="50" type="passenger" depart="163.13">
        <route edges="420101309 381741964#1 381741932#2 381741932#3 381741932#4 -381741929#2 -381741929#1 -381741958#2 381741939"/>
    </vehicle>
    <vehicle id="51" type="passenger" depart="166.40">
        <route edges="-381746304#0 920025287#4 519097168#2 519097168#4 218910324#0 -420187962#3"/>
    </vehicle>
    <vehicle id="52" type="passenger" depart="169.66">
        <route edges="519097167#1 218910324#3 -381741929#2 -381741929#1 -381741958#2 -381741958#0"/>
    </vehicle>
    <vehicle id="53" type="passenger" depart="172.92">
        <route edges="920025286 -381746325#1 -381746325#0 218960891#1 218960891#2 218960891#3 218960891#4 218910324#0 218910324#1 218910324#2 -519097167#1"/>
    </vehicle>
    <vehicle id="54" type="passenger" depart="176.19">
        <route edges="381741957#0 381741957#1 381741932#0 381741932#1 381741964#2 519097166#0 519097168#1 519097168#2 519097168#4 -218681380#4 381458583#0 381458583#1 381458583#2"/>
    </vehicle>
    <vehicle id="55" type="passenger" depart="179.45">
        <route edges="458731949 -519097166#0 -381741964#2 381741932#2 381741932#3 381741927"/>
    </vehicle>
    <vehicle id="56" type="passenger" depart="182.71">
        <route edges="519097168#2 519097168#4 218910324#0 218910324#1 218910324#2 -519097167#1 -519097167#0 -381741961#1 -381741961#0"/>
    </vehicle>
    <vehicle id="57" type="passenger" depart="185.97">
        <route edges="-381746303#1 -381746304#3 -381746304#2 -381746304#1 -381746304#0 920025287#4 -519097168#1 -519097166#0 -381741964#2 381741932#2 381741932#3 381741932#4 -218910324#3"/>
    </vehicle>
    <vehicle id="58" type="passenger" depart="189.24">
        <route edges="381741929#2 -218910324#3 -218910324#2 -218910324#1 913718470 -519097168#2 -519097168#1 -458731949"/>
    </vehicle>
    <vehicle id="59" type="passenger" depart="192.50">
        <route edges="381741932#4 -218910324#3 -218910324#2 -218910324#1 913718470 -519097168#2 -920025287#4 381746304#0 381746304#1 381746321#0 381746321#1"/>
    </vehicle>
    <vehicle id="60" type="passenger" depart="195.76">
        <route edges="913718470 -519097168#2 -920025287#4 381746304#0 381746304#1 381746321#0 381746317#1"/>
    </vehicle>
    <vehicle id="61" type="passenger" depart="199.02">
        <route edges="420101309 381741964#1 381741932#2 381741932#3 381741927 -519097167#0"/>
    </vehicle>
    <vehicle id="62" type="passenger" depart="202.29">
        <route edges="-218910324#5 -218910324#4 -218910324#3 -218910324#2 -218910324#1 913718470 -519097168#2 -920025287#4 381746304#0 381746304#1 381746304#2 381746304#3"/>
    </vehicle>
    <vehicle id="63" type="passenger" depart="205.55">
        <route edges="97537672 413106892 519097168#0 519097168#1 -920025287#4 -920025287#3"/>
    </vehicle>
    <vehicle id="64" type="passenger" depart="208.81">
        <route edges="519097168#1 519097168#2 519097168#4 -218960891#4 -218960891#3 -218960891#2 375125202"/>
    </vehicle>
    <vehicle id="65" type="passenger" depart="212.07">
        <route edges="-519097168#4 -519097168#2 -519097168#1 -458731949 -218910324#1 -218910324#0 -218960891#4 -218960891#3 -218960891#2 -218960891#1 381746325#0 381746325#1"/>
    </vehicle>
    <vehicle id="66" type="passenger" depart="215.34">
        <route edges="-218960891#1 381746325#0 117770556#1 920025287#0 920025287#1 920025287#2 -381746313 519097168#4 218910324#0 -420187962#3"/>
    </vehicle>
    <vehicle id="67" type="passenger" depart="218.60">
        <route edges="381741958#0 381741958#2 381741929#1 381741929#2 -218910324#3 -218910324#2 -218910324#1 -218910324#0 -218960891#4 -218960891#3"/>
    </vehicle>
    <vehicle id="68" type="passenger" depart="221.86">
        <route edges="381458583#2 381458593 -218910324#3 -519097167#1"/>
    </vehicle>
    <vehicle id="69" type="passenger" depart="225.13">
        <route edges="-381741964#2 381741932#2 381741932#3 381741932#4 -218910324#3 -218910324#2 -218910324#1 913718470 -519097168#2 -519097168#1"/>
    </vehicle>
    <vehicle id="70" type="passenger" depart="228.39">
        <route edges="381746303#1 -381746304#0 920025287#4 -519097168#1 -519097168#0 -413106892 381746310 381741932#0 381741932#1"/>
    </vehicle>
    <vehicle id="71" type="passenger" depart="231.65">
        <route edges="381741925 381741964#1 381741964#2 519097166#0 519097168#1 519097168#2 519097168#4 -218960891#4 -218960891#3 381746308"/>
    </vehicle>
    <vehicle id="72" type="passenger" depart="234.91">
        <route edges="-920025287#1 -920025287#0 920025286 -381746325#1 -381746325#0 218960891#1 218960891#2 218960891#3 913717725 381458583#0"/>
    </vehicle>
    <vehicle id="73" type="passenger" depart="238.18">
        <route edges="-381458583#1 -381458583#0 218681380#4 -519097168#4 -519097168#2 -519097168#1 -519097168#0 -413106892 381746310 381741932#0"/>
    </vehicle>
    <vehicle id="74" type="passenger" depart="241.44">
        <route edges="381741948#0 381741948#1 -381741961#0 519097168#0 519097168#1 519097168#2 519097168#4 -218681380#4 -218681380#2 381458608#0 381458608#1"/>
    </vehicle>
    <vehicle id="75" type="passenger" depart="244.70">
        <route edges="381746317#1 -381746304#2 -381746304#1 -381746304#0 920025287#4"/>
    </vehicle>
    <vehicle id="76" type="passenger" depart="247.96">
        <route edges="381741964#1 381741964#2 519097166#0 519097168#1 519097168#2 381746313 920025287#3"/>
    </vehicle>
    <vehicle id="77" type="passenger" depart="251.23">
        <route edges="381741934 381741929#2 -218910324#3 -218910324#2 -218910324#1 913718470 -519097168#2 -920025287#4 381746304#0 381746304#1 381746304#2 -381746317#1 -381746321#0 -381746304#1"/>
    </vehicle>
    <vehicle id="78" type="passenger" depart="254.49">
        <route edges="458731949 -519097168#0 -413106892 381746310 381741932#0 381741932#1"/>
    </vehicle>
    <vehicle id="79" type="passenger" depart="257.75">
        <route edges="381741932#0 381741932#1 -381741964#1 -381741925"/>
    </vehicle>
    <vehicle id="80" type="passenger" depart="261.02">
        <route edges="381458603#0 381458603#1 420187962#1 420187962#2 420187962#3 913718470 -519097168#2 -519097168#1 -519097168#0 -413106892"/>
    </vehicle>
    <vehicle id="81" type="passenger" depart="264.28">
        <route edges="381458603#1 420187962#1 420187962#2 420187962#3 913718470 519097168#4"/>
    </vehicle>
    <vehicle id="82" type="passenger" depart="267.54">
        <route edges="-519097168#2 -519097168#1 -458731949 -218910324#1 -218910324#0 -218681380#4"/>
    </vehicle>
    <vehicle id="83" type="passenger" depart="270.80">
        <route edges="-381458603#0 218681380#1 218681380#2 218681380#4 -218960891#4 -218960891#3 -218960891#2 375125202 920025286 -381746325#1 -381746325#0 218960891#1"/>
    </vehicle>
    <vehicle id="84" type="passenger" depart="274.07">
        <route edges="420187962#0 420187962#1 420187962#2 381458583#1 381458583#2 381458593 -218910324#3"/>
    </vehicle>
    <vehicle id="85" type="passenger" depart="277.33">
        <route edges="-920025287#2 -920025287#1 -920025287#0 920025286 -381746325#1 -381746325#0 218960891#1 218960891#2 218960891#3 218960891#4 -519097168#4 -519097168#2 -519097168#1 -519097168#0 -413106892"/>
    </vehicle>
    <vehicle id="86" type="passenger" depart="280.59">
        <route edges="117770556#1 920025287#0 920025287#1 920025287#2 -381746313 519097168#4 -218681380#4 -218681380#2 381458608#0 381458608#1"/>
    </vehicle>
    <vehicle id="87" type="passenger" depart="283.85">
        <route edges="218960891#0 218960891#1 218960891#2 218960891#3 218960891#4 -519097168#4 -519097168#2 -920025287#4 381746304#0 381746304#1 381746304#2 -381746317#1 -381746321#0 -381746304#1 -381746304#0"/>
    </vehicle>
    <vehicle id="88" type="passenger" depart="287.12">
        <route edges="458731949 519097168#1 -920025287#4 381746304#0 381746304#1 381746321#0"/>
    </vehicle>
    <vehicle id="89" type="passenger" depart="290.38">
        <route edges="519097168#0 519097168#1 519097168#2 519097168#4 218910324#0 -420187962#3 -420187962#2 -420187962#1 -381458603#1"/>
    </vehicle>
    <vehicle id="90" type="passenger" depart="293.64">
        <route edges="375125202 920025287#0 920025287#1 920025287#2 920025287#3 920025287#4 -519097168#1 -519097166#0 -381741961#1"/>
    </vehicle>
    <vehicle id="91" type="passenger" depart="296.90">
        <route edges="-381458583#1 420187962#3 913718470 519097168#4"/>
    </vehicle>
    <vehicle id="92" type="passenger" depart="300.17">
        <route edges="381741934 381741929#2 -218910324#3 -218910324#2 -218910324#1 913718470 381746313 -920025287#2"/>
    </vehicle>
    <vehicle id="93" type="passenger" depart="303.43">
        <route edges="381746304#3 381746303#1 -381746304#0 920025287#4 519097168#2 519097168#4 -218960891#4 -218960891#3 -218960891#2 -218960891#1 381746325#0 381746325#1 420103660"/>
    </vehicle>
    <vehicle id="94" type="passenger" depart="306.69">
        <route edges="218681380#4 218910324#0 218910324#1 218910324#2 218910324#3 -381458593 -381458583#2"/>
    </vehicle>
    <vehicle id="95" type="passenger" depart="309.96">
        <route edges="519097168#1 519097168#2 519097168#4 218910324#0 218910324#1"/>
    </vehicle>
    <vehicle id="96" type="passenger" depart="313.22">
        <route edges="-920025287#3 -381746313 -519097168#2 -519097168#1 -519097168#0 381741961#0 -381741948#1"/>
    </vehicle>
    <vehicle id="97" type="passenger" depart="316.48">
        <route edges="218960891#3 913717725 381458583#0 420187962#3"/>
    </vehicle>
    <vehicle id="98" type="passenger" depart="319.74">
        <route edges="913717725 381458583#0 381458583#1 -381458608#1"/>
    </vehicle>
    <vehicle id="99" type="passenger" depart="323.01">
        <route edges="-381458593 -381458583#2 -381458583#1 -381458583#0 218681380#4 -519097168#4 -519097168#2 -519097168#1 -519097168#0 -413106892 413106898 97537664#1-AddedOnRampEdge 97537664#1"/>
    </vehicle>
    <vehicle id="100" type="passenger" depart="326.27">
        <route edges="218960891#3 218960891#4 -519097168#4 -519097168#2 -519097168#1 -519097166#0 -381741964#2 381741932#2 381741925"/>
    </vehicle>
    <vehicle id="101" type="passenger" depart="329.53">
        <route edges="381741958#0 381741958#2 381741929#1 381741929#2 -218910324#3 -218910324#2 -218910324#1 913718470 -519097168#2"/>
    </vehicle>
    <vehicle id="102" type="passenger" depart="332.79">
        <route edges="-920025286 920025287#0 920025287#1 920025287#2 -381746313 519097168#4 -218681380#4 -218681380#2 -218681380#1 381458603#0 420314177"/>
    </vehicle>
    <vehicle id="103" type="passenger" depart="336.06">
        <route edges="381741932#0 381741932#1 381741964#2 519097166#0 519097168#1 519097168#2 519097168#4 -218681380#4"/>
    </vehicle>
    <vehicle id="104" type="passenger" depart="339.32">
        <route edges="381741925 381741964#1 381741964#2 519097166#0 519097168#1 -920025287#4 381746304#0 381746304#1 381746304#2 381746304#3 381746303#1"/>
    </vehicle>
    <vehicle id="105" type="passenger" depart="342.58">
        <route edges="-519097166#0 519097167#0 519097167#1 -218910324#2 -218910324#1 -420187962#3"/>
    </vehicle>
    <vehicle id="106" type="passenger" depart="345.85">
        <route edges="-458731949 -218910324#1 913718470 -519097168#2 -920025287#4 381746304#0 -381746303#1 -381746304#3"/>
    </vehicle>
    <vehicle id="107" type="passenger" depart="349.11">
        <route edges="913722640 -381746313 519097168#4 -218681380#4 -218681380#2 -218681380#1 381458603#0 420314177"/>
    </vehicle>
    <vehicle id="108" type="passenger" depart="352.37">
        <route edges="381458583#1 381458583#2 381458593 -218910324#3 -218910324#2"/>
    </vehicle>
    <vehicle id="109" type="passenger" depart="355.63">
        <route edges="788296730 381741927 -519097167#0 519097166#0 519097168#1 -920025287#4 381746304#0 381746304#1 381746321#0"/>
    </vehicle>
    <vehicle id="110" type="passenger" depart="358.90">
        <route edges="381741932#2 381741932#3 381741932#4 -218910324#3 -218910324#2 -218910324#1 -218910324#0 -218960891#4 -218960891#3 -218960891#2 375125202 920025287#0 920025287#1"/>
    </vehicle>
    <vehicle id="111" type="passenger" depart="362.16">
        <route edges="381746304#1 381746304#2 -381746317#1 -381746321#0 -381746304#1 -381746304#0 920025287#4 519097168#2 519097168#4 -218681380#4 -218681380#2 -218681380#1 381458603#0"/>
    </vehicle>
    <vehicle id="112" type="passenger" depart="365.42">
        <route edges="-420314177 -381458603#0 218681380#1 381458608#0"/>
    </vehicle>
    <vehicle id="113" type="passenger" depart="368.68">
        <route edges="-920025287#3 -381746313 519097168#4 218910324#0 218910324#1 218910324#2 218910324#3 -381741929#2 -381741934"/>
    </vehicle>
    <vehicle id="114" type="passenger" depart="371.95">
        <route edges="381741957#0 381741957#1 381741932#0 381741948#1 -381741961#0 519097168#0 -519097166#0"/>
    </vehicle>
    <vehicle id="115" type="passenger" depart="375.21">
        <route edges="-381746321#1 -381746321#0 -381746304#1 -381746304#0 920025287#4 519097168#2 519097168#4 -218681380#4 -218681380#2 381458608#0 381458608#1 -381458583#1"/>
    </vehicle>
    <vehicle id="116" type="passenger" depart="378.47">
        <route edges="-519097168#0 381741961#0 381741961#1 519097166#0 519097168#1 -920025287#4 381746304#0 381746304#1 381746304#2"/>
    </vehicle>
    <vehicle id="117" type="passenger" depart="381.73">
        <route edges="913718470 381746313 -920025287#2 -920025287#1"/>
    </vehicle>
    <vehicle id="118" type="passenger" depart="385.00">
        <route edges="218681380#0 381458603#0 381458603#1"/>
    </vehicle>
    <vehicle id="119" type="passenger" depart="388.26">
        <route edges="-381458583#0 218681380#4 218910324#0 -420187962#3 -420187962#2 -420187962#1 -381458603#1 -381458603#0"/>
    </vehicle>
    <vehicle id="120" type="passenger" depart="391.52">
        <route edges="913718470 -519097168#2 -920025287#4 -920025287#3 -381746313"/>
    </vehicle>
    <vehicle id="121" type="passenger" depart="394.79">
        <route edges="-218960891#3 -218960891#2 375125202 920025287#0 920025287#1 920025287#2 920025287#3 920025287#4 -519097168#1 -519097166#0 519097167#0 -381741927"/>
    </vehicle>
    <vehicle id="122" type="passenger" depart="398.05">
        <route edges="-218910324#0 -218960891#4 913717725 218681380#4 218910324#0 218910324#1 218910324#2 218910324#3 218910324#4 218910324#5"/>
    </vehicle>
    <vehicle id="123" type="passenger" depart="401.31">
        <route edges="381741932#2 381741932#3 381741927 -519097167#0 519097166#0 519097168#1 -920025287#4 381746304#0 381746304#1 381746321#0 381746317#1 -381746304#2"/>
    </vehicle>
    <vehicle id="124" type="passenger" depart="404.57">
        <route edges="-218910324#0 -519097168#4 -519097168#2 -519097168#1 -458731949 -218910324#1"/>
    </vehicle>
    <vehicle id="125" type="passenger" depart="407.84">
        <route edges="381741957#1 381741932#0 381741932#1 381741964#2 519097166#0 519097168#1 519097168#2 519097168#4 -218681380#4 -218681380#2 -218681380#1 -218681380#0"/>
    </vehicle>
    <vehicle id="126" type="passenger" depart="411.10">
        <route edges="-381746304#1 -381746304#0 -920025287#3 -920025287#2 -920025287#1"/>
    </vehicle>
    <vehicle id="127" type="passenger" depart="414.36">
        <route edges="-920025287#2 -920025287#1 -920025287#0 920025286 -381746325#1 -381746325#0 218960891#1 218960891#2 218960891#3 218960891#4 -519097168#4 -519097168#2 -519097168#1 -519097168#0 -413106892 381746310 -381741957#1 781179155"/>
    </vehicle>
    <vehicle id="128" type="passenger" depart="417.62">
        <route edges="913717725 218681380#4 218910324#0"/>
    </vehicle>
    <vehicle id="129" type="passenger" depart="420.89">
        <route edges="381741929#1 381741929#2 -218910324#3 -218910324#2 -218910324#1 -420187962#3 -420187962#2"/>
    </vehicle>
    <vehicle id="130" type="passenger" depart="424.15">
        <route edges="218681380#2 218681380#4"/>
    </vehicle>
    <vehicle id="131" type="passenger" depart="427.41">
        <route edges="420187962#2 381458583#1 -381458608#1 -420187962#1"/>
    </vehicle>
    <vehicle id="132" type="passenger" depart="430.68">
        <route edges="920025286 -381746325#1 -381746325#0 218960891#1 218960891#2 218960891#3 218960891#4 -519097168#4 -519097168#2 -519097168#1 -519097168#0 381741961#0 -381741948#1"/>
    </vehicle>
    <vehicle id="133" type="passenger" depart="433.94">
        <route edges="-920025286 920025287#0 920025287#1 920025287#2 920025287#3 920025287#4 -519097168#1 -519097168#0 381741961#0 -381741948#1 -381741948#0"/>
    </vehicle>
    <vehicle id="134" type="passenger" depart="437.20">
        <route edges="-381746321#1 -381746321#0 -381746304#1 -381746304#0 920025287#4 519097168#2 519097168#4 218910324#0 218910324#1 218910324#2 218910324#3 -381741929#2 -381741929#1 -381741958#2"/>
    </vehicle>
    <vehicle id="135" type="passenger" depart="440.46">
        <route edges="381741932#4 -218910324#3 -218910324#2 -218910324#1 913718470 -519097168#2 -920025287#4 381746304#0"/>
    </vehicle>
    <vehicle id="136" type="passenger" depart="443.73">
        <route edges="519097166#0 519097168#1 519097168#2 519097168#4 -218681380#4 381458583#0 381458583#1 -381458608#1"/>
    </vehicle>
    <vehicle id="137" type="passenger" depart="446.99">
        <route edges="97537672 381746310 381741932#0 381741932#1 381741932#2 381741932#3 381741932#4"/>
    </vehicle>
    <vehicle id="138" type="passenger" depart="450.25">
        <route edges="-381746317#1 -381746321#0 -381746304#1 -381746304#0 920025287#4 -519097168#1 -519097166#0 -381741964#2 381741932#2"/>
    </vehicle>
    <vehicle id="139" type="passenger" depart="453.51">
        <route edges="381741929#1 381741929#2 -218910324#3 -218910324#2 -218910324#1 -420187962#3 -420187962#2 -420187962#1"/>
    </vehicle>
    <vehicle id="140" type="passenger" depart="456.78">
        <route edges="-381746317#1 -381746321#0 -381746304#1 -381746304#0 920025287#4 519097168#2 519097168#4 -218960891#4"/>
    </vehicle>
    <vehicle id="141" type="passenger" depart="460.04">