<?xml version='1.0' encoding='utf-8'?>
<configuration>
  <input>
    <net-file value="/Users/junlee/Desktop/2026-1/js/result/report_top12_seed4_2h/sumo_nets/cw_23040/network.net.xml" />
    <route-files value="/Users/junlee/Desktop/2026-1/js/result/report_top12_seed4_2h/sumo_nets/cw_23040/routes_seed45.rou.xml,/Users/junlee/Desktop/2026-1/js/result/report_top12_seed4_2h/sumo_nets/cw_23040/peds_seed45.rou.xml" />
  </input>
  <time>
    <begin value="0" />
    <end value="7500" />
    <step-length value="1.0" />
  </time>
  <processing>
    <time-to-teleport value="300" />
    <pedestrian.model value="striping" />
  </processing>
  <report>
    <no-step-log value="true" />
    <duration-log.disable value="true" />
  </report>
</configuration>