<?xml version="1.0" encoding="UTF-8"?>

<!-- generated on 2026-04-15T00:22:57.411669+09:00 by Eclipse SUMO netconvert 1.26.0
<netconvertConfiguration xmlns:xsi="http://www.w3.org/2001/XMLSchema-instance" xsi:noNamespaceSchemaLocation="http://sumo.dlr.de/xsd/netconvertConfiguration.xsd">

    <input>
        <osm-files value="/Users/junlee/Desktop/2026-1/js/result/2026-04-15_00-06-49/sumo_nets/cw_9650/map.osm"/>
    </input>

    <output>
        <output-file value="/Users/junlee/Desktop/2026-1/js/result/2026-04-15_00-06-49/sumo_nets/cw_9650/network.net.xml"/>
    </output>

    <projection>
        <proj.utm value="true"/>
    </projection>

    <processing>
        <geometry.remove value="true"/>
        <roundabouts.guess value="true"/>
    </processing>

    <tls_building>
        <tls.guess value="true"/>
        <tls.guess-signals value="true"/>
    </tls_building>

    <ramp_guessing>
        <ramps.guess value="true"/>
    </ramp_guessing>

    <edge_removal>
        <keep-edges.by-vclass value="passenger,pedestrian"/>
    </edge_removal>

    <junctions>
        <no-turnarounds value="true"/>
        <junctions.join value="true"/>
    </junctions>

    <pedestrian>
        <sidewalks.guess value="true"/>
        <sidewalks.guess.max-speed value="13.89"/>
        <crossings.guess value="true"/>
    </pedestrian>

    <report>
        <verbose value="true"/>
    </report>

</netconvertConfiguration>
-->

<net version="1.20" junctionCornerDetail="5" walkingareas="true" limitTurnSpeed="5.50" xmlns:xsi="http://www.w3.org/2001/XMLSchema-instance" xsi:noNamespaceSchemaLocation="http://sumo.dlr.de/xsd/net_file.xsd">

    <location netOffset="-320291.06,-4158399.29" convBoundary="0.00,0.00,1387.18,1965.84" origBoundary="126.727956,37.552576,126.988830,37.716138" projParameter="+proj=utm +zone=52 +ellps=WGS84 +datum=WGS84 +units=m +no_defs"/>

    <type id="highway.cycleway" priority="1" numLanes="1" speed="5.56" allow="bicycle" oneway="0" width="2.00"/>
    <type id="highway.footway" priority="1" numLanes="1" speed="2.78" allow="pedestrian" oneway="1" width="2.00"/>
    <type id="highway.path" priority="1" numLanes="1" speed="5.56" allow="pedestrian bicycle" oneway="0" width="2.00"/>
    <type id="highway.pedestrian" priority="1" numLanes="1" speed="2.78" allow="pedestrian" oneway="1" width="2.00"/>
    <type id="highway.primary" priority="12" numLanes="2" speed="27.78" disallow="tram rail_urban rail rail_electric rail_fast ship container cable_car subway aircraft wheelchair scooter drone" oneway="0"/>
    <type id="highway.primary_link" priority="7" numLanes="1" speed="22.22" disallow="tram rail_urban rail rail_electric rail_fast ship container cable_car subway aircraft wheelchair scooter drone" oneway="0"/>
    <type id="highway.residential" priority="3" numLanes="1" speed="13.89" disallow="tram rail_urban rail rail_electric rail_fast ship container cable_car subway aircraft wheelchair scooter drone" oneway="0"/>
    <type id="highway.secondary" priority="11" numLanes="1" speed="27.78" disallow="tram rail_urban rail rail_electric rail_fast ship container cable_car subway aircraft wheelchair scooter drone" oneway="0"/>
    <type id="highway.service" priority="1" numLanes="1" speed="5.56" allow="pedestrian delivery bicycle" oneway="0"/>
    <type id="highway.steps" priority="1" numLanes="1" speed="1.39" allow="pedestrian" oneway="1" width="2.00"/>
    <type id="highway.tertiary_link" priority="5" numLanes="1" speed="22.22" disallow="tram rail_urban rail rail_electric rail_fast ship container cable_car subway aircraft wheelchair scooter drone" oneway="0"/>
    <type id="highway.unclassified" priority="4" numLanes="1" speed="13.89" disallow="tram rail_urban rail rail_electric rail_fast ship container cable_car subway aircraft wheelchair scooter drone" oneway="0"/>

    <edge id=":10712099890_w0" function="walkingarea">
        <lane id=":10712099890_w0_0" index="0" allow="pedestrian" speed="2.78" length="4.03" width="2.00" shape="1015.02,363.13 1015.33,361.15 1014.52,360.85 1014.25,360.58 1014.07,360.24 1013.97,359.82 1013.97,359.32 1011.97,359.18 1011.75,360.00 1011.52,360.27 1011.21,360.46 1010.83,360.55 1010.37,360.55 1010.20,362.54"/>
    </edge>
    <edge id=":10712099893_w0" function="walkingarea">
        <lane id=":10712099893_w0_0" index="0" allow="pedestrian" speed="2.78" length="4.06" width="2.00" shape="1040.75,323.58 1042.74,323.35 1042.16,318.37 1040.17,318.61 1040.10,319.44 1039.93,319.74 1039.66,319.96 1039.30,320.11 1038.85,320.17 1038.95,322.17 1039.88,322.29 1040.22,322.48 1040.48,322.76 1040.65,323.12"/>
    </edge>
    <edge id=":10727322977_w0" function="walkingarea">
        <lane id=":10727322977_w0_0" index="0" allow="pedestrian" speed="2.78" length="4.03" width="2.00" shape="1011.27,325.01 1013.27,324.99 1013.43,324.15 1013.64,323.84 1013.95,323.62 1014.33,323.48 1014.81,323.41 1014.71,321.41 1013.87,321.29 1013.57,321.09 1013.36,320.81 1013.22,320.45 1013.17,319.99 1011.17,320.05"/>
    </edge>
    <edge id=":10727322978_0" function="internal">
        <lane id=":10727322978_0_0" index="0" disallow="tram rail_urban rail rail_electric rail_fast ship container cable_car subway aircraft wheelchair scooter drone" speed="27.78" length="5.95" shape="1013.87,271.36 1008.56,268.58"/>
        <lane id=":10727322978_0_1" index="1" disallow="tram rail_urban rail rail_electric rail_fast ship container cable_car subway aircraft wheelchair scooter drone" speed="27.78" length="5.95" shape="1015.33,268.51 1010.10,265.78"/>
    </edge>
    <edge id=":10727322978_w0" function="walkingarea">
        <lane id=":10727322978_w0_0" index="0" allow="pedestrian" speed="2.78" length="5.10" width="3.20" shape="1009.84,273.65 1011.84,273.59 1011.97,272.84 1012.14,272.64 1012.40,272.57 1012.73,272.61 1013.13,272.78 1016.06,267.09 1010.87,264.37 1007.79,269.99 1008.91,270.86 1009.30,271.42 1009.59,272.07 1009.77,272.81"/>
    </edge>
    <edge id=":10864285557_w0" function="walkingarea">
        <lane id=":10864285557_w0_0" index="0" allow="pedestrian" speed="2.78" length="0.10" width="3.20" shape="1282.52,456.35 1280.78,462.51"/>
    </edge>
    <edge id=":11139302904_0" function="internal">
        <lane id=":11139302904_0_0" index="0" disallow="tram rail_urban rail rail_electric rail_fast ship container cable_car subway aircraft wheelchair scooter drone" speed="27.78" length="0.28" shape="683.95,165.47 683.70,165.66"/>
        <lane id=":11139302904_0_1" index="1" disallow="tram rail_urban rail rail_electric rail_fast ship container cable_car subway aircraft wheelchair scooter drone" speed="27.78" length="0.28" shape="681.94,162.98 681.74,163.13"/>
    </edge>
    <edge id=":11139302904_w0" function="walkingarea">
        <lane id=":11139302904_w0_0" index="0" allow="pedestrian" speed="2.78" length="0.31" width="3.20" shape="684.95,166.71 680.93,161.73 680.75,161.87 684.68,166.92"/>
    </edge>
    <edge id=":11203001809_w0" function="walkingarea">
        <lane id=":11203001809_w0_0" index="0" allow="pedestrian" speed="2.78" length="0.10" width="2.00" shape="944.33,581.48 942.33,581.46 944.33,581.48"/>
    </edge>
    <edge id=":11203001812_w0" function="walkingarea">
        <lane id=":11203001812_w0_0" index="0" allow="pedestrian" speed="2.78" length="3.03" width="4.00" shape="915.58,546.66 915.57,544.66 913.82,544.68 912.64,544.74 911.49,544.86 910.55,545.08 910.00,545.41 913.16,547.85 913.84,547.19 914.22,546.96 914.64,546.80 915.09,546.70"/>
    </edge>
    <edge id=":11268210383_w0" function="walkingarea">
        <lane id=":11268210383_w0_0" index="0" allow="pedestrian" speed="2.78" length="4.02" width="2.00" shape="1090.55,615.19 1091.10,613.27 1090.35,612.88 1090.13,612.60 1090.01,612.26 1089.99,611.87 1090.08,611.42 1088.16,610.86 1087.77,611.61 1087.48,611.83 1087.15,611.95 1086.75,611.97 1086.30,611.88 1085.74,613.80"/>
    </edge>
    <edge id=":11418728529_0" function="internal">
        <lane id=":11418728529_0_0" index="0" allow="pedestrian delivery bicycle" speed="5.56" length="6.63" shape="944.82,406.81 938.20,407.05"/>
    </edge>
    <edge id=":11418728529_1" function="internal">
        <lane id=":11418728529_1_0" index="0" allow="pedestrian delivery bicycle" speed="5.56" length="6.69" shape="938.05,403.86 944.74,403.62"/>
    </edge>
    <edge id=":11418728529_w0" function="walkingarea">
        <lane id=":11418728529_w0_0" index="0" allow="pedestrian" speed="2.78" length="6.21" width="6.40" shape="944.87,408.41 944.69,402.02 943.91,401.88 943.67,401.69 943.54,401.41 943.52,401.05 943.60,400.61 941.68,400.07 941.01,401.22 940.46,401.64 939.78,401.95 938.95,402.16 937.98,402.26 938.28,408.65 939.09,408.78 939.35,408.97 939.52,409.25 939.59,409.61 939.57,410.07 941.55,410.34 942.03,409.31 942.51,408.94 943.14,408.66 943.92,408.49"/>
    </edge>
    <edge id=":11418728533_w0" function="walkingarea">
        <lane id=":11418728533_w0_0" index="0" allow="pedestrian" speed="2.78" length="4.42" width="2.00" shape="938.50,520.11 940.31,519.26 940.12,518.54 940.20,518.31 940.40,518.17 940.72,518.12 941.15,518.16 941.50,516.19 940.08,515.78 939.58,515.48 939.22,515.13 939.00,514.72 938.92,514.25 936.92,514.28 937.07,516.52 937.25,517.30 937.53,518.05 937.94,518.94"/>
    </edge>
    <edge id=":11418728553_w0" function="walkingarea">
        <lane id=":11418728553_w0_0" index="0" allow="pedestrian" speed="2.78" length="4.88" width="2.00" shape="1063.77,609.61 1065.76,609.43 1065.85,608.65 1066.03,608.42 1066.29,608.29 1066.64,608.27 1067.07,608.36 1067.63,606.44 1066.39,605.81 1065.94,605.33 1065.59,604.76 1065.36,604.08 1065.23,603.30 1063.24,603.47 1063.16,604.23 1062.99,604.44 1062.74,604.53 1062.41,604.50 1062.00,604.35 1061.18,606.18 1062.53,607.03 1063.02,607.57 1063.39,608.18 1063.64,608.86"/>
    </edge>
    <edge id=":11449716078_0" function="internal">
        <lane id=":11449716078_0_0" index="0" allow="pedestrian delivery bicycle" speed="7.16" length="7.31" shape="1007.93,239.68 1008.10,242.17 1008.55,244.10 1009.28,245.47 1010.27,246.28"/>
    </edge>
    <edge id=":11449716078_1" function="internal">
        <lane id=":11449716078_1_0" index="0" allow="pedestrian delivery bicycle" speed="4.72" length="5.66" shape="1001.10,242.10 1002.71,242.56 1003.85,242.32 1004.52,241.38 1004.73,239.73"/>
    </edge>
    <edge id=":11449716078_2" function="internal">
        <lane id=":11449716078_2_0" index="0" disallow="tram rail_urban rail rail_electric rail_fast ship container cable_car subway aircraft wheelchair scooter drone" speed="27.78" length="10.08" shape="1001.10,242.10 1010.27,246.28"/>
        <lane id=":11449716078_2_1" index="1" disallow="tram rail_urban rail rail_electric rail_fast ship container cable_car subway aircraft wheelchair scooter drone" speed="27.78" length="10.08" shape="999.75,245.00 1008.92,249.18"/>
    </edge>
    <edge id=":11449716078_w0" function="walkingarea">
        <lane id=":11449716078_w0_0" index="0" allow="pedestrian" speed="2.78" length="6.74" width="6.40" shape="1008.24,250.63 1010.95,244.83 1010.19,243.98 1009.91,243.22 1009.71,242.25 1009.58,241.07 1009.53,239.66 1003.13,239.75 1002.99,240.52 1002.80,240.73 1002.54,240.82 1002.20,240.79 1001.78,240.64 999.08,246.45"/>
    </edge>
    <edge id=":11449716203_0" function="internal">
        <lane id=":11449716203_0_0" index="0" allow="pedestrian delivery bicycle" speed="5.56" length="5.02" shape="1024.17,131.08 1019.28,129.90"/>
    </edge>
    <edge id=":11449716203_1" function="internal">
        <lane id=":11449716203_1_0" index="0" allow="pedestrian delivery bicycle" speed="5.56" length="5.02" shape="1020.03,126.79 1024.92,127.97"/>
    </edge>
    <edge id=":11449716203_w0" function="walkingarea">
        <lane id=":11449716203_w0_0" index="0" allow="pedestrian" speed="2.78" length="5.04" width="6.40" shape="1023.79,132.63 1025.29,126.41 1020.41,125.23 1018.91,131.46 1019.65,131.80 1019.86,132.07 1019.95,132.38 1019.93,132.76 1019.80,133.19 1021.65,133.95 1022.19,133.06 1022.53,132.79 1022.90,132.62 1023.33,132.57"/>
    </edge>
    <edge id=":11449716209_0" function="internal">
        <lane id=":11449716209_0_0" index="0" disallow="pedestrian tram rail_urban rail rail_electric rail_fast ship container cable_car subway aircraft wheelchair scooter drone" speed="13.89" length="5.00" shape="1047.34,153.17 1047.20,148.17"/>
    </edge>
    <edge id=":11449716209_1" function="internal">
        <lane id=":11449716209_1_0" index="0" disallow="pedestrian tram rail_urban rail rail_electric rail_fast ship container cable_car subway aircraft wheelchair scooter drone" speed="13.89" length="5.00" shape="1050.40,148.08 1050.54,153.08"/>
    </edge>
    <edge id=":11449716209_c0" function="crossing" crossingEdges="-315658884#2 315658884#2">
        <lane id=":11449716209_c0_0" index="0" allow="pedestrian" speed="2.78" length="6.40" width="4.00" shape="1052.07,150.53 1045.67,150.71" outlineShape="1052.13,152.53 1045.73,152.71 1045.62,148.71 1052.01,148.53 1052.13,152.53 1052.14,153.03 1054.14,152.98 1054.01,148.48"/>
    </edge>
    <edge id=":11449716209_w0" function="walkingarea">
        <lane id=":11449716209_w0_0" index="0" allow="pedestrian" speed="2.78" length="3.49" width="4.00" shape="1045.60,148.22 1043.60,148.27 1042.14,149.82 1042.20,151.82 1043.74,153.27 1045.74,153.21 1045.73,152.71 1045.62,148.71"/>
    </edge>
    <edge id=":11449716209_w1" function="walkingarea">
        <lane id=":11449716209_w1_0" index="0" allow="pedestrian" speed="2.78" length="3.47" width="4.00" shape="1052.01,148.53 1052.13,152.53 1052.14,153.03 1054.14,152.98 1054.00,147.97 1052.00,148.03"/>
    </edge>
    <edge id=":11449716210_0" function="internal">
        <lane id=":11449716210_0_0" index="0" allow="pedestrian delivery bicycle" speed="5.56" length="5.02" shape="1027.92,195.18 1022.90,195.48"/>
    </edge>
    <edge id=":11449716210_1" function="internal">
        <lane id=":11449716210_1_0" index="0" allow="pedestrian delivery bicycle" speed="5.56" length="5.02" shape="1022.71,192.29 1027.72,191.99"/>
    </edge>
    <edge id=":11449716210_w0" function="walkingarea">
        <lane id=":11449716210_w0_0" index="0" allow="pedestrian" speed="2.78" length="5.03" width="6.40" shape="1028.02,196.78 1027.63,190.39 1026.76,190.25 1026.42,190.02 1026.14,189.70 1025.93,189.27 1025.78,188.74 1023.82,189.13 1023.82,189.96 1023.67,190.26 1023.42,190.48 1023.07,190.63 1022.62,190.69 1023.00,197.08"/>
    </edge>
    <edge id=":12920546289_w0" function="walkingarea">
        <lane id=":12920546289_w0_0" index="0" allow="pedestrian" speed="2.78" length="4.70" width="2.00" shape="1115.74,399.90 1117.19,398.53 1116.75,397.78 1116.70,397.40 1116.78,397.00 1116.97,396.60 1117.28,396.19 1115.79,394.85 1115.05,395.27 1114.62,395.24 1114.15,395.04 1113.64,394.68 1113.09,394.16 1111.63,395.53 1112.04,396.15 1112.03,396.38 1111.88,396.56 1111.59,396.68 1111.17,396.75 1111.33,398.74 1113.19,398.76 1113.97,398.90 1114.66,399.14 1115.25,399.47"/>
    </edge>
    <edge id=":13639573211_0" function="internal">
        <lane id=":13639573211_0_0" index="0" allow="pedestrian bicycle" speed="5.56" length="5.06" width="2.00" shape="827.66,440.33 823.37,443.03"/>
    </edge>
    <edge id=":13639573211_1" function="internal">
        <lane id=":13639573211_1_0" index="0" allow="pedestrian bicycle" speed="5.56" length="5.07" width="2.00" shape="822.30,441.34 826.59,438.63"/>
    </edge>
    <edge id=":13639573211_w0" function="walkingarea">
        <lane id=":13639573211_w0_0" index="0" allow="pedestrian" speed="2.78" length="4.32" width="4.00" shape="825.64,444.50 827.54,443.88 827.34,442.73 827.39,442.25 827.55,441.83 827.82,441.47 828.19,441.17 826.06,437.79 821.77,440.49 823.91,443.88 824.66,443.59 824.97,443.63 825.24,443.80 825.46,444.09"/>
    </edge>
    <edge id=":13639573216_0" function="internal">
        <lane id=":13639573216_0_0" index="0" allow="pedestrian bicycle" speed="5.56" length="4.99" width="2.00" shape="911.17,548.79 908.11,552.73"/>
    </edge>
    <edge id=":13639573216_1" function="internal">
        <lane id=":13639573216_1_0" index="0" allow="pedestrian bicycle" speed="5.56" length="5.00" width="2.00" shape="906.53,551.51 909.59,547.56"/>
    </edge>
    <edge id=":13639573216_w0" function="walkingarea">
        <lane id=":13639573216_w0_0" index="0" allow="pedestrian" speed="2.78" length="4.22" width="4.00" shape="911.96,549.41 908.80,546.95 908.16,547.51 907.83,547.60 907.49,547.56 907.16,547.38 906.82,547.08 905.53,548.63 906.03,549.39 906.12,549.77 906.10,550.15 905.97,550.52 905.74,550.89 908.90,553.34"/>
    </edge>
    <edge id=":13721232709_w0" function="walkingarea">
        <lane id=":13721232709_w0_0" index="0" allow="pedestrian" speed="2.78" length="2.00" width="4.00" shape="685.97,166.96 686.94,168.71 685.00,165.21 685.97,166.96"/>
    </edge>
    <edge id=":13721232722_0" function="internal">
        <lane id=":13721232722_0_0" index="0" allow="pedestrian bicycle" speed="5.56" length="4.01" width="2.00" shape="778.00,384.76 775.69,381.47"/>
    </edge>
    <edge id=":13721232722_1" function="internal">
        <lane id=":13721232722_1_0" index="0" allow="pedestrian bicycle" speed="5.56" length="3.98" width="2.00" shape="777.34,380.34 779.63,383.60"/>
    </edge>
    <edge id=":13721232722_w0" function="walkingarea">
        <lane id=":13721232722_w0_0" index="0" allow="pedestrian" speed="2.78" length="3.54" width="4.00" shape="777.19,385.34 780.44,383.01 780.91,381.12 780.01,379.33 777.26,378.46 773.96,380.72 774.28,381.48 774.26,381.82 774.12,382.12 773.85,382.39 773.47,382.64 774.37,384.42 775.39,384.16 775.87,384.25 776.33,384.47 776.77,384.83"/>
    </edge>
    <edge id=":13721232724_w0" function="walkingarea">
        <lane id=":13721232724_w0_0" index="0" allow="pedestrian" speed="2.78" length="2.00" width="4.00" shape="937.09,550.08 938.91,549.24 935.27,550.92 937.09,550.08"/>
    </edge>
    <edge id=":13721232728_w0" function="walkingarea">
        <lane id=":13721232728_w0_0" index="0" allow="pedestrian" speed="2.78" length="2.00" width="4.00" shape="938.17,552.43 936.35,553.27 939.99,551.59 938.17,552.43"/>
    </edge>
    <edge id=":13721232768_0" function="internal">
        <lane id=":13721232768_0_0" index="0" allow="pedestrian bicycle" speed="13.89" length="29.51" width="2.00" shape="780.43,523.36 774.65,521.79 766.04,520.30 757.34,519.22 751.33,518.87"/>
    </edge>
    <edge id=":13721232768_1" function="internal">
        <lane id=":13721232768_1_0" index="0" allow="pedestrian bicycle" speed="5.56" length="28.87" width="2.00" shape="780.43,523.36 774.55,521.89 765.89,520.27 757.62,518.22 752.90,515.44"/>
    </edge>
    <edge id=":13721232768_2" function="internal">
        <lane id=":13721232768_2_0" index="0" allow="pedestrian bicycle" speed="6.75" length="20.57" width="2.00" shape="783.68,519.62 776.22,517.68 773.55,517.44 775.67,518.92 782.58,522.11"/>
    </edge>
    <edge id=":13721232768_3" function="internal">
        <lane id=":13721232768_3_0" index="0" disallow="tram rail_urban rail rail_electric rail_fast ship container cable_car subway aircraft wheelchair scooter drone" speed="22.22" length="32.39" shape="783.68,519.62 777.30,518.91 767.58,518.67 757.82,518.73 751.33,518.87"/>
    </edge>
    <edge id=":13721232768_4" function="internal">
        <lane id=":13721232768_4_0" index="0" allow="pedestrian bicycle" speed="13.89" length="31.34" width="2.00" shape="783.68,519.62 777.19,519.00 767.43,518.64 758.09,517.73 752.90,515.44"/>
    </edge>
    <edge id=":13721232768_5" function="internal">
        <lane id=":13721232768_5_0" index="0" allow="pedestrian bicycle" speed="5.56" length="29.18" width="2.00" shape="754.65,514.47 759.43,517.21 767.84,519.16 776.63,520.68 782.58,522.11"/>
    </edge>
    <edge id=":13721232768_6" function="internal">
        <lane id=":13721232768_6_0" index="0" allow="pedestrian bicycle" speed="5.02" length="7.36" width="2.00" shape="754.65,514.47 755.36,516.32 755.04,517.68 753.70,518.53 751.33,518.87"/>
    </edge>
    <edge id=":13721232768_w0" function="walkingarea">
        <lane id=":13721232768_w0_0" index="0" allow="pedestrian" speed="2.78" length="19.36" width="4.00" shape="779.35,523.98 783.66,521.49 783.72,521.30 783.63,517.95 775.34,515.70 768.51,514.08 763.13,513.09 759.19,512.73 756.72,513.00 755.69,513.89 752.03,515.93 752.28,516.65 752.22,516.91 752.03,517.10 751.72,517.22 751.28,517.27 751.39,520.47 757.45,520.18 762.03,519.93 765.81,519.94 769.49,520.47 773.77,521.74"/>
    </edge>
    <edge id=":13721232773_w0" function="walkingarea">
        <lane id=":13721232773_w0_0" index="0" allow="pedestrian" speed="2.78" length="2.00" width="4.00" shape="642.81,264.65 643.79,262.91 641.83,266.39 642.81,264.65"/>
    </edge>
    <edge id=":13721232786_0" function="internal">
        <lane id=":13721232786_0_0" index="0" allow="pedestrian bicycle" speed="5.56" length="5.44" width="2.00" shape="745.77,404.54 742.55,400.16"/>
    </edge>
    <edge id=":13721232786_1" function="internal">
        <lane id=":13721232786_1_0" index="0" allow="pedestrian bicycle" speed="5.56" length="5.44" width="2.00" shape="744.16,398.97 747.38,403.35"/>
    </edge>
    <edge id=":13721232786_w0" function="walkingarea">
        <lane id=":13721232786_w0_0" index="0" allow="pedestrian" speed="2.78" length="4.46" width="4.00" shape="744.97,405.13 748.19,402.76 747.84,402.00 747.84,401.66 747.97,401.35 748.22,401.05 748.59,400.79 747.58,399.06 746.63,399.37 746.19,399.33 745.76,399.14 745.35,398.83 744.96,398.38 741.74,400.75 741.33,402.71 742.34,404.44"/>
    </edge>
    <edge id=":1936511304_w0" function="walkingarea">
        <lane id=":1936511304_w0_0" index="0" allow="pedestrian" speed="2.78" length="2.00" width="4.00" shape="203.14,-0.00 204.76,-1.17 201.52,1.17 203.14,0.00"/>
    </edge>
    <edge id=":1936511434_w0" function="walkingarea">
        <lane id=":1936511434_w0_0" index="0" allow="pedestrian" speed="2.78" length="0.10" width="3.20" shape="876.85,585.04 873.41,590.44"/>
    </edge>
    <edge id=":2509327417_w0" function="walkingarea">
        <lane id=":2509327417_w0_0" index="0" allow="pedestrian" speed="2.78" length="8.40" width="2.00" shape="1385.00,321.90 1383.64,323.36 1390.72,315.76 1389.36,317.22"/>
    </edge>
    <edge id=":3053674662_w0" function="walkingarea">
        <lane id=":3053674662_w0_0" index="0" allow="pedestrian" speed="2.78" length="4.38" width="2.00" shape="1041.33,330.08 1043.33,329.95 1043.42,329.19 1043.59,328.99 1043.84,328.91 1044.17,328.94 1044.58,329.10 1045.45,327.30 1044.10,326.49 1043.61,326.06 1043.24,325.61 1043.00,325.14 1042.88,324.65 1040.90,324.87"/>
    </edge>
    <edge id=":3217912756_0" function="internal">
        <lane id=":3217912756_0_0" index="0" allow="delivery bicycle" speed="5.70" length="6.69" shape="1048.73,197.01 1048.33,195.68 1047.31,194.77 1045.69,194.28 1043.45,194.23"/>
    </edge>
    <edge id=":3217912756_1" function="internal">
        <lane id=":3217912756_1_0" index="0" disallow="pedestrian tram rail_urban rail rail_electric rail_fast ship container cable_car subway aircraft wheelchair scooter drone" speed="13.89" length="9.28" shape="1048.73,197.01 1048.31,187.74"/>
    </edge>
    <edge id=":3217912756_2" function="internal">
        <lane id=":3217912756_2_0" index="0" disallow="pedestrian tram rail_urban rail rail_electric rail_fast ship container cable_car subway aircraft wheelchair scooter drone" speed="13.89" length="9.18" shape="1051.51,187.65 1051.92,196.82"/>
    </edge>
    <edge id=":3217912756_3" function="internal">
        <lane id=":3217912756_3_0" index="0" allow="delivery bicycle" speed="7.41" length="2.83" shape="1051.51,187.65 1051.07,190.34 1051.01,190.42"/>
    </edge>
    <edge id=":3217912756_6" function="internal">
        <lane id=":3217912756_6_0" index="0" allow="delivery bicycle" speed="7.41" length="8.88" shape="1051.01,190.42 1049.58,192.33 1047.04,193.63 1043.45,194.23"/>
    </edge>
    <edge id=":3217912756_4" function="internal">
        <lane id=":3217912756_4_0" index="0" allow="delivery bicycle" speed="5.77" length="6.71" shape="1043.25,191.03 1045.50,190.71 1047.09,190.05 1048.03,189.06 1048.31,187.74"/>
    </edge>
    <edge id=":3217912756_5" function="internal">
        <lane id=":3217912756_5_0" index="0" allow="delivery bicycle" speed="7.35" length="11.82" shape="1043.25,191.03 1046.90,191.20 1049.56,192.23 1051.24,194.10 1051.92,196.82"/>
    </edge>
    <edge id=":3217912756_c0" function="crossing" crossingEdges="-315658884#1 315658884#1">
        <lane id=":3217912756_c0_0" index="0" allow="pedestrian" speed="2.78" length="6.40" width="4.00" shape="1053.40,194.73 1047.01,195.11" outlineShape="1053.52,196.72 1047.13,197.11 1046.89,193.12 1053.28,192.73 1053.52,196.72 1053.62,196.72"/>
    </edge>
    <edge id=":3217912756_w0" function="walkingarea">
        <lane id=":3217912756_w0_0" index="0" allow="pedestrian" speed="2.78" length="5.31" width="4.00" shape="1046.71,187.78 1044.71,187.84 1043.15,189.44 1043.35,192.63 1043.55,195.82 1045.13,197.23 1047.13,197.11 1046.89,193.12"/>
    </edge>
    <edge id=":3217912756_w1" function="walkingarea">
        <lane id=":3217912756_w1_0" index="0" allow="pedestrian" speed="2.78" length="6.17" width="4.00" shape="1053.28,192.73 1053.52,196.72 1055.51,196.60 1055.11,187.55 1053.11,187.60"/>
    </edge>
    <edge id=":3217912757_0" function="internal">
        <lane id=":3217912757_0_0" index="0" allow="delivery bicycle" speed="6.74" length="7.78" shape="1046.93,138.74 1046.50,137.69 1045.29,136.72 1043.29,135.83 1040.49,135.02"/>
    </edge>
    <edge id=":3217912757_1" function="internal">
        <lane id=":3217912757_1_0" index="0" disallow="pedestrian tram rail_urban rail rail_electric rail_fast ship container cable_car subway aircraft wheelchair scooter drone" speed="13.89" length="9.65" shape="1046.93,138.74 1046.63,129.09"/>
    </edge>
    <edge id=":3217912757_2" function="internal">
        <lane id=":3217912757_2_0" index="0" disallow="pedestrian tram rail_urban rail rail_electric rail_fast ship container cable_car subway aircraft wheelchair scooter drone" speed="13.89" length="9.66" shape="1049.83,128.99 1050.13,138.64"/>
    </edge>
    <edge id=":3217912757_3" function="internal">
        <lane id=":3217912757_3_0" index="0" allow="delivery bicycle" speed="7.20" length="3.54" shape="1049.83,128.99 1049.34,132.50"/>
    </edge>
    <edge id=":3217912757_6" function="internal">
        <lane id=":3217912757_6_0" index="0" allow="delivery bicycle" speed="7.20" length="10.05" shape="1049.34,132.50 1047.63,134.67 1044.68,135.51 1040.49,135.02"/>
    </edge>
    <edge id=":3217912757_4" function="internal">
        <lane id=":3217912757_4_0" index="0" allow="delivery bicycle" speed="5.48" length="7.36" shape="1041.24,131.91 1043.65,132.23 1045.35,131.87 1046.34,130.82 1046.63,129.09"/>
    </edge>
    <edge id=":3217912757_5" function="internal">
        <lane id=":3217912757_5_0" index="0" allow="delivery bicycle" speed="8.20" length="11.91" shape="1041.24,131.91 1045.08,133.12 1047.84,134.65 1049.52,136.49 1050.13,138.64"/>
    </edge>
    <edge id=":3217912757_c0" function="crossing" crossingEdges="-315658884#3 315658884#3">
        <lane id=":3217912757_c0_0" index="0" allow="pedestrian" speed="2.78" length="6.40" width="4.00" shape="1051.67,136.60 1045.27,136.78" outlineShape="1051.73,138.60 1045.33,138.78 1045.21,134.78 1051.61,134.60 1051.83,138.60 1053.73,138.54 1053.42,128.87 1051.43,128.93 1051.61,134.60"/>
    </edge>
    <edge id=":3217912757_w0" function="walkingarea">
        <lane id=":3217912757_w0_0" index="0" allow="pedestrian" speed="2.78" length="5.79" width="4.00" shape="1045.03,129.14 1043.03,129.21 1041.62,130.35 1040.87,133.46 1040.12,136.58 1043.33,138.84 1045.33,138.78 1045.21,134.78"/>
    </edge>
    <edge id=":3217912757_w1" function="walkingarea">
        <lane id=":3217912757_w1_0" index="0" allow="pedestrian" speed="2.78" length="6.55" width="4.00" shape="1051.61,134.60 1051.73,138.60 1053.73,138.54 1053.42,128.87 1051.43,128.93"/>
    </edge>
    <edge id=":3217912758_w0" function="walkingarea">
        <lane id=":3217912758_w0_0" index="0" allow="pedestrian" speed="2.78" length="8.40" width="2.00" shape="1050.91,113.06 1052.91,112.99 1042.51,113.33 1044.51,113.26"/>
    </edge>
    <edge id=":3217915233_w0" function="walkingarea">
        <lane id=":3217915233_w0_0" index="0" allow="pedestrian" speed="2.78" length="6.12" width="6.40" shape="1007.47,128.69 1008.97,122.47 1008.25,122.13 1008.06,121.88 1008.00,121.58 1008.06,121.22 1008.24,120.81 1006.49,119.84 1001.68,128.14 1003.39,129.18 1004.19,128.55 1004.80,128.42 1005.55,128.39 1006.44,128.49"/>
    </edge>
    <edge id=":3251198144_w0" function="walkingarea">
        <lane id=":3251198144_w0_0" index="0" allow="pedestrian" speed="2.78" length="4.04" width="2.00" shape="1017.53,467.70 1019.53,467.55 1019.63,466.71 1019.82,466.41 1020.09,466.19 1020.46,466.05 1020.91,465.99 1020.83,463.99 1015.82,464.22 1015.92,466.22 1016.76,466.35 1017.07,466.55 1017.30,466.85 1017.46,467.23"/>
    </edge>
    <edge id=":3251198145_w0" function="walkingarea">
        <lane id=":3251198145_w0_0" index="0" allow="pedestrian" speed="2.78" length="4.04" width="2.00" shape="1051.97,466.16 1053.96,466.00 1053.56,461.01 1051.56,461.17 1051.47,462.01 1051.28,462.31 1051.01,462.53 1050.64,462.67 1050.19,462.73 1050.27,464.73 1051.16,464.86 1051.48,465.05 1051.73,465.33 1051.89,465.70"/>
    </edge>
    <edge id=":3251198146_w0" function="walkingarea">
        <lane id=":3251198146_w0_0" index="0" allow="pedestrian" speed="2.78" length="4.23" width="2.00" shape="1025.44,536.21 1026.00,534.29 1025.19,533.81 1024.88,533.42 1024.65,532.93 1024.49,532.34 1024.40,531.65 1022.40,531.80 1022.30,532.59 1022.13,532.83 1021.86,532.96 1021.51,532.99 1021.07,532.91 1020.55,534.84"/>
    </edge>
    <edge id=":3251198147_w0" function="walkingarea">