<?xml version='1.0' encoding='utf-8'?>
<routes>
  <vType id="adult" vClass="pedestrian" minGap="0.25" width="0.5" length="0.25" maxSpeed="1.5" speedDev="0.1" />
  <vType id="elderly" vClass="pedestrian" minGap="0.25" width="0.5" length="0.25" maxSpeed="1.13" speedDev="0.15" color="255,0,0" />
  <person id="ped_0" depart="10.88" type="elderly">
    <walk from="239357573#0" to="239357573#1" />
  </person>
  <person id="ped_1" depart="16.76" type="adult">
    <walk from="239357573#0" to="239357573#1" />
  </person>
  <person id="ped_2" depart="17.56" type="adult">
    <walk from="239357573#0" to="239357573#1" />
  </person>
  <person id="ped_3" depart="20.30" type="adult">
    <walk from="239357573#0" to="239357573#1" />
  </person>
  <person id="ped_4" depart="22.93" type="adult">
    <walk from="239357573#0" to="239357573#1" />
  </person>
  <person id="ped_5" depart="26.11" type="adult">
    <walk from="239357573#0" to="239357573#1" />
  </person>
  <person id="ped_6" depart="29.89" type="adult">
    <walk from="239357573#0" to="239357573#1" />
  </person>
  <person id="ped_7" depart="33.12" type="adult">
    <walk from="239357573#0" to="239357573#1" />
  </person>
  <person id="ped_8" depart="43.75" type="adult">
    <walk from="239357573#0" to="239357573#1" />
  </person>
  <person id="ped_9" depart="53.69" type="adult">
    <walk from="239357573#0" to="239357573#1" />
  </person>
  <person id="ped_10" depart="59.52" type="elderly">
    <walk from="239357573#0" to="239357573#1" />
  </person>
  <person id="ped_11" depart="67.40" type="adult">
    <walk from="239357573#0" to="239357573#1" />
  </person>
  <person id="ped_12" depart="90.46" type="adult">
    <walk from="239357573#0" to="239357573#1" />
  </person>
  <person id="ped_13" depart="101.40" type="elderly">
    <walk from="239357573#0" to="239357573#1" />
  </person>
  <person id="ped_14" depart="108.97" type="adult">
    <walk from="239357573#0" to="239357573#1" />
  </person>
  <person id="ped_15" depart="117.92" type="adult">
    <walk from="239357573#0" to="239357573#1" />
  </person>
  <person id="ped_16" depart="123.58" type="adult">
    <walk from="239357573#0" to="239357573#1" />
  </person>
  <person id="ped_17" depart="149.36" type="elderly">
    <walk from="239357573#0" to="239357573#1" />
  </person>
  <person id="ped_18" depart="149.76" type="adult">
    <walk from="239357573#0" to="239357573#1" />
  </person>
  <person id="ped_19" depart="158.22" type="adult">
    <walk from="239357573#0" to="239357573#1" />
  </person>
  <person id="ped_20" depart="160.07" type="adult">
    <walk from="239357573#0" to="239357573#1" />
  </person>
  <person id="ped_21" depart="166.45" type="adult">
    <walk from="239357573#0" to="239357573#1" />
  </person>
  <person id="ped_22" depart="174.11" type="adult">
    <walk from="239357573#0" to="239357573#1" />
  </person>
  <person id="ped_23" depart="176.54" type="adult">
    <walk from="239357573#0" to="239357573#1" />
  </person>
  <person id="ped_24" depart="187.65" type="adult">
    <walk from="239357573#0" to="239357573#1" />
  </person>
  <person id="ped_25" depart="193.77" type="adult">
    <walk from="239357573#0" to="239357573#1" />
  </person>
  <person id="ped_26" depart="203.57" type="adult">
    <walk from="239357573#0" to="239357573#1" />
  </person>
  <person id="ped_27" depart="209.65" type="adult">
    <walk from="239357573#0" to="239357573#1" />
  </person>
  <person id="ped_28" depart="210.42" type="adult">
    <walk from="239357573#0" to="239357573#1" />
  </person>
  <person id="ped_29" depart="213.84" type="adult">
    <walk from="239357573#0" to="239357573#1" />
  </person>
  <person id="ped_30" depart="235.86" type="elderly">
    <walk from="239357573#0" to="239357573#1" />
  </person>
  <person id="ped_31" depart="236.55" type="adult">
    <walk from="239357573#0" to="239357573#1" />
  </person>
  <person id="ped_32" depart="237.52" type="adult">
    <walk from="239357573#0" to="239357573#1" />
  </person>
  <person id="ped_33" depart="239.64" type="adult">
    <walk from="239357573#0" to="239357573#1" />
  </person>
  <person id="ped_34" depart="241.09" type="elderly">
    <walk from="239357573#0" to="239357573#1" />
  </person>
  <person id="ped_35" depart="254.25" type="adult">
    <walk from="239357573#0" to="239357573#1" />
  </person>
  <person id="ped_36" depart="267.67" type="adult">
    <walk from="239357573#0" to="239357573#1" />
  </person>
  <person id="ped_37" depart="279.81" type="adult">
    <walk from="239357573#0" to="239357573#1" />
  </person>
  <person id="ped_38" depart="285.82" type="adult">
    <walk from="239357573#0" to="239357573#1" />
  </person>
  <person id="ped_39" depart="292.38" type="adult">
    <walk from="239357573#0" to="239357573#1" />
  </person>
  <person id="ped_40" depart="297.41" type="adult">
    <walk from="239357573#0" to="239357573#1" />
  </person>
  <person id="ped_41" depart="297.62" type="adult">
    <walk from="239357573#0" to="239357573#1" />
  </person>
  <person id="ped_42" depart="301.15" type="elderly">
    <walk from="239357573#0" to="239357573#1" />
  </person>
  <person id="ped_43" depart="310.32" type="adult">
    <walk from="239357573#0" to="239357573#1" />
  </person>
  <person id="ped_44" depart="312.72" type="adult">
    <walk from="239357573#0" to="239357573#1" />
  </person>
  <person id="ped_45" depart="324.82" type="adult">
    <walk from="239357573#0" to="239357573#1" />
  </person>
  <person id="ped_46" depart="329.34" type="adult">
    <walk from="239357573#0" to="239357573#1" />
  </person>
  <person id="ped_47" depart="348.70" type="adult">
    <walk from="239357573#0" to="239357573#1" />
  </person>
  <person id="ped_48" depart="348.92" type="elderly">
    <walk from="239357573#0" to="239357573#1" />
  </person>
  <person id="ped_49" depart="351.51" type="adult">
    <walk from="239357573#0" to="239357573#1" />
  </person>
  <person id="ped_50" depart="381.36" type="adult">
    <walk from="239357573#0" to="239357573#1" />
  </person>
  <person id="ped_51" depart="385.85" type="adult">
    <walk from="239357573#0" to="239357573#1" />
  </person>
  <person id="ped_52" depart="391.88" type="elderly">
    <walk from="239357573#0" to="239357573#1" />
  </person>
  <person id="ped_53" depart="395.78" type="adult">
    <walk from="239357573#0" to="239357573#1" />
  </person>
  <person id="ped_54" depart="405.50" type="adult">
    <walk from="239357573#0" to="239357573#1" />
  </person>
  <person id="ped_55" depart="412.09" type="adult">
    <walk from="239357573#0" to="239357573#1" />
  </person>
  <person id="ped_56" depart="422.11" type="adult">
    <walk from="239357573#0" to="239357573#1" />
  </person>
  <person id="ped_57" depart="427.27" type="adult">
    <walk from="239357573#0" to="239357573#1" />
  </person>
  <person id="ped_58" depart="428.77" type="adult">
    <walk from="239357573#0" to="239357573#1" />
  </person>
  <person id="ped_59" depart="435.69" type="adult">
    <walk from="239357573#0" to="239357573#1" />
  </person>
  <person id="ped_60" depart="435.78" type="adult">
    <walk from="239357573#0" to="239357573#1" />
  </person>
  <person id="ped_61" depart="439.71" type="adult">
    <walk from="239357573#0" to="239357573#1" />
  </person>
  <person id="ped_62" depart="448.16" type="elderly">
    <walk from="239357573#0" to="239357573#1" />
  </person>
  <person id="ped_63" depart="469.34" type="adult">
    <walk from="239357573#0" to="239357573#1" />
  </person>
  <person id="ped_64" depart="472.46" type="elderly">
    <walk from="239357573#0" to="239357573#1" />
  </person>
  <person id="ped_65" depart="483.95" type="elderly">
    <walk from="239357573#0" to="239357573#1" />
  </person>
  <person id="ped_66" depart="488.93" type="adult">
    <walk from="239357573#0" to="239357573#1" />
  </person>
  <person id="ped_67" depart="505.24" type="adult">
    <walk from="239357573#0" to="239357573#1" />
  </person>
  <person id="ped_68" depart="513.22" type="adult">
    <walk from="239357573#0" to="239357573#1" />
  </person>
  <person id="ped_69" depart="537.09" type="adult">
    <walk from="239357573#0" to="239357573#1" />
  </person>
  <person id="ped_70" depart="554.41" type="adult">
    <walk from="239357573#0" to="239357573#1" />
  </person>
  <person id="ped_71" depart="567.40" type="adult">
    <walk from="239357573#0" to="239357573#1" />
  </person>
  <person id="ped_72" depart="568.74" type="adult">
    <walk from="239357573#0" to="239357573#1" />
  </person>
  <person id="ped_73" depart="570.62" type="adult">
    <walk from="239357573#0" to="239357573#1" />
  </person>
  <person id="ped_74" depart="580.38" type="adult">
    <walk from="239357573#0" to="239357573#1" />
  </person>
  <person id="ped_75" depart="586.69" type="adult">
    <walk from="239357573#0" to="239357573#1" />
  </person>
  <person id="ped_76" depart="590.49" type="adult">
    <walk from="239357573#0" to="239357573#1" />
  </person>
  <person id="ped_77" depart="597.56" type="adult">
    <walk from="239357573#0" to="239357573#1" />
  </person>
  <person id="ped_78" depart="607.27" type="adult">
    <walk from="239357573#0" to="239357573#1" />
  </person>
  <person id="ped_79" depart="608.02" type="adult">
    <walk from="239357573#0" to="239357573#1" />
  </person>
  <person id="ped_80" depart="608.13" type="elderly">
    <walk from="239357573#0" to="239357573#1" />
  </person>
  <person id="ped_81" depart="611.37" type="adult">
    <walk from="239357573#0" to="239357573#1" />
  </person>
  <person id="ped_82" depart="619.17" type="elderly">
    <walk from="239357573#0" to="239357573#1" />
  </person>
  <person id="ped_83" depart="628.25" type="adult">
    <walk from="239357573#0" to="239357573#1" />
  </person>
  <person id="ped_84" depart="631.25" type="elderly">
    <walk from="239357573#0" to="239357573#1" />
  </person>
  <person id="ped_85" depart="631.58" type="adult">
    <walk from="239357573#0" to="239357573#1" />
  </person>
  <person id="ped_86" depart="644.54" type="adult">
    <walk from="239357573#0" to="239357573#1" />
  </person>
  <person id="ped_87" depart="645.48" type="adult">
    <walk from="239357573#0" to="239357573#1" />
  </person>
  <person id="ped_88" depart="646.51" type="adult">
    <walk from="239357573#0" to="239357573#1" />
  </person>
  <person id="ped_89" depart="647.13" type="adult">
    <walk from="239357573#0" to="239357573#1" />
  </person>
  <person id="ped_90" depart="656.40" type="adult">
    <walk from="239357573#0" to="239357573#1" />
  </person>
  <person id="ped_91" depart="660.35" type="adult">
    <walk from="239357573#0" to="239357573#1" />
  </person>
  <person id="ped_92" depart="660.61" type="adult">
    <walk from="239357573#0" to="239357573#1" />
  </person>
  <person id="ped_93" depart="665.67" type="elderly">
    <walk from="239357573#0" to="239357573#1" />
  </person>
  <person id="ped_94" depart="672.11" type="adult">
    <walk from="239357573#0" to="239357573#1" />
  </person>
  <person id="ped_95" depart="688.86" type="adult">
    <walk from="239357573#0" to="239357573#1" />
  </person>
  <person id="ped_96" depart="690.57" type="adult">
    <walk from="239357573#0" to="239357573#1" />
  </person>
  <person id="ped_97" depart="734.24" type="adult">
    <walk from="239357573#0" to="239357573#1" />
  </person>
  <person id="ped_98" depart="740.21" type="adult">
    <walk from="239357573#0" to="239357573#1" />
  </person>
  <person id="ped_99" depart="744.96" type="adult">
    <walk from="239357573#0" to="239357573#1" />
  </person>
  <person id="ped_100" depart="750.31" type="adult">
    <walk from="239357573#0" to="239357573#1" />
  </person>
  <person id="ped_101" depart="752.40" type="adult">
    <walk from="239357573#0" to="239357573#1" />
  </person>
  <person id="ped_102" depart="753.20" type="adult">
    <walk from="239357573#0" to="239357573#1" />
  </person>
  <person id="ped_103" depart="753.29" type="adult">
    <walk from="239357573#0" to="239357573#1" />
  </person>
  <person id="ped_104" depart="767.08" type="adult">
    <walk from="239357573#0" to="239357573#1" />
  </person>
  <person id="ped_105" depart="799.75" type="adult">
    <walk from="239357573#0" to="239357573#1" />
  </person>
  <person id="ped_106" depart="847.00" type="adult">
    <walk from="239357573#0" to="239357573#1" />
  </person>
  <person id="ped_107" depart="850.38" type="adult">
    <walk from="239357573#0" to="239357573#1" />
  </person>
  <person id="ped_108" depart="851.15" type="adult">
    <walk from="239357573#0" to="239357573#1" />
  </person>
  <person id="ped_109" depart="852.32" type="adult">
    <walk from="239357573#0" to="239357573#1" />
  </person>
  <person id="ped_110" depart="858.00" type="adult">
    <walk from="239357573#0" to="239357573#1" />
  </person>
  <person id="ped_111" depart="861.06" type="adult">
    <walk from="239357573#0" to="239357573#1" />
  </person>
  <person id="ped_112" depart="861.43" type="adult">
    <walk from="239357573#0" to="239357573#1" />
  </person>
  <person id="ped_113" depart="863.24" type="adult">
    <walk from="239357573#0" to="239357573#1" />
  </person>
  <person id="ped_114" depart="865.31" type="adult">
    <walk from="239357573#0" to="239357573#1" />
  </person>
  <person id="ped_115" depart="870.56" type="adult">
    <walk from="239357573#0" to="239357573#1" />
  </person>
  <person id="ped_116" depart="872.54" type="adult">
    <walk from="239357573#0" to="239357573#1" />
  </person>
  <person id="ped_117" depart="876.25" type="adult">
    <walk from="239357573#0" to="239357573#1" />
  </person>
  <person id="ped_118" depart="900.30" type="adult">
    <walk from="239357573#0" to="239357573#1" />
  </person>
  <person id="ped_119" depart="910.40" type="adult">
    <walk from="239357573#0" to="239357573#1" />
  </person>
  <person id="ped_120" depart="914.01" type="adult">
    <walk from="239357573#0" to="239357573#1" />
  </person>
  <person id="ped_121" depart="919.86" type="adult">
    <walk from="239357573#0" to="239357573#1" />
  </person>
  <person id="ped_122" depart="930.48" type="elderly">
    <walk from="239357573#0" to="239357573#1" />
  </person>
  <person id="ped_123" depart="933.88" type="adult">
    <walk from="239357573#0" to="239357573#1" />
  </person>
  <person id="ped_124" depart="945.13" type="adult">
    <walk from="239357573#0" to="239357573#1" />
  </person>
  <person id="ped_125" depart="948.55" type="adult">
    <walk from="239357573#0" to="239357573#1" />
  </person>
  <person id="ped_126" depart="950.06" type="adult">
    <walk from="239357573#0" to="239357573#1" />
  </person>
  <person id="ped_127" depart="972.12" type="adult">
    <walk from="239357573#0" to="239357573#1" />
  </person>
  <person id="ped_128" depart="984.57" type="adult">
    <walk from="239357573#0" to="239357573#1" />
  </person>
  <person id="ped_129" depart="988.66" type="adult">
    <walk from="239357573#0" to="239357573#1" />
  </person>
  <person id="ped_130" depart="1026.92" type="adult">
    <walk from="239357573#0" to="239357573#1" />
  </person>
  <person id="ped_131" depart="1029.89" type="elderly">
    <walk from="239357573#0" to="239357573#1" />
  </person>
  <person id="ped_132" depart="1044.68" type="adult">
    <walk from="239357573#0" to="239357573#1" />
  </person>
  <person id="ped_133" depart="1053.51" type="adult">
    <walk from="239357573#0" to="239357573#1" />
  </person>
  <person id="ped_134" depart="1055.63" type="adult">
    <walk from="239357573#0" to="239357573#1" />
  </person>
  <person id="ped_135" depart="1062.84" type="adult">
    <walk from="239357573#0" to="239357573#1" />
  </person>
  <person id="ped_136" depart="1071.42" type="adult">
    <walk from="239357573#0" to="239357573#1" />
  </person>
  <person id="ped_137" depart="1082.35" type="adult">
    <walk from="239357573#0" to="239357573#1" />
  </person>
  <person id="ped_138" depart="1086.47" type="adult">
    <walk from="239357573#0" to="239357573#1" />
  </person>
  <person id="ped_139" depart="1099.76" type="adult">
    <walk from="239357573#0" to="239357573#1" />
  </person>
  <person id="ped_140" depart="1106.40" type="elderly">
    <walk from="239357573#0" to="239357573#1" />
  </person>
  <person id="ped_141" depart="1119.59" type="elderly">
    <walk from="239357573#0" to="239357573#1" />
  </person>
  <person id="ped_142" depart="1121.88" type="adult">
    <walk from="239357573#0" to="239357573#1" />
  </person>
  <person id="ped_143" depart="1143.90" type="adult">
    <walk from="239357573#0" to="239357573#1" />
  </person>
  <person id="ped_144" depart="1170.30" type="adult">
    <walk from="239357573#0" to="239357573#1" />
  </person>
  <person id="ped_145" depart="1176.28" type="adult">
    <walk from="239357573#0" to="239357573#1" />
  </person>
  <person id="ped_146" depart="1178.63" type="adult">
    <walk from="239357573#0" to="239357573#1" />
  </person>
  <person id="ped_147" depart="1217.23" type="elderly">
    <walk from="239357573#0" to="239357573#1" />
  </person>
  <person id="ped_148" depart="1223.30" type="adult">
    <walk from="239357573#0" to="239357573#1" />
  </person>
  <person id="ped_149" depart="1230.23" type="adult">
    <walk from="239357573#0" to="239357573#1" />
  </person>
  <person id="ped_150" depart="1233.25" type="adult">
    <walk from="239357573#0" to="239357573#1" />
  </person>
  <person id="ped_151" depart="1236.43" type="adult">
    <walk from="239357573#0" to="239357573#1" />
  </person>
  <person id="ped_152" depart="1246.52" type="adult">
    <walk from="239357573#0" to="239357573#1" />
  </person>
  <person id="ped_153" depart="1253.43" type="adult">
    <walk from="239357573#0" to="239357573#1" />
  </person>
  <person id="ped_154" depart="1266.90" type="adult">
    <walk from="239357573#0" to="239357573#1" />
  </person>
  <person id="ped_155" depart="1282.10" type="adult">
    <walk from="239357573#0" to="239357573#1" />
  </person>
  <person id="ped_156" depart="1283.74" type="adult">
    <walk from="239357573#0" to="239357573#1" />
  </person>
  <person id="ped_157" depart="1285.63" type="elderly">
    <walk from="239357573#0" to="239357573#1" />
  </person>
  <person id="ped_158" depart="1286.77" type="adult">
    <walk from="239357573#0" to="239357573#1" />
  </person>
  <person id="ped_159" depart="1288.70" type="adult">
    <walk from="239357573#0" to="239357573#1" />
  </person>
  <person id="ped_160" depart="1291.22" type="elderly">
    <walk from="239357573#0" to="239357573#1" />
  </person>
  <person id="ped_161" depart="1291.89" type="adult">
    <walk from="239357573#0" to="239357573#1" />
  </person>
  <person id="ped_162" depart="1340.44" type="adult">
    <walk from="239357573#0" to="239357573#1" />
  </person>
  <person id="ped_163" depart="1347.90" type="elderly">
    <walk from="239357573#0" to="239357573#1" />
  </person>
  <person id="ped_164" depart="1348.54" type="adult">
    <walk from="239357573#0" to="239357573#1" />
  </person>
  <person id="ped_165" depart="1375.36" type="adult">
    <walk from="239357573#0" to="239357573#1" />
  </person>
  <person id="ped_166" depart="1380.69" type="adult">
    <walk from="239357573#0" to="239357573#1" />
  </person>
  <person id="ped_167" depart="1382.11" type="adult">
    <walk from="239357573#0" to="239357573#1" />
  </person>
  <person id="ped_168" depart="1385.24" type="adult">
    <walk from="239357573#0" to="239357573#1" />
  </person>
  <person id="ped_169" depart="1392.21" type="adult">
    <walk from="239357573#0" to="239357573#1" />
  </person>
  <person id="ped_170" depart="1397.54" type="adult">
    <walk from="239357573#0" to="239357573#1" />
  </person>
  <person id="ped_171" depart="1418.41" type="adult">
    <walk from="239357573#0" to="239357573#1" />
  </person>
  <person id="ped_172" depart="1420.12" type="adult">
    <walk from="239357573#0" to="239357573#1" />
  </person>
  <person id="ped_173" depart="1436.37" type="adult">
    <walk from="239357573#0" to="239357573#1" />
  </person>
  <person id="ped_174" depart="1437.41" type="adult">
    <walk from="239357573#0" to="239357573#1" />
  </person>
  <person id="ped_175" depart="1438.20" type="adult">
    <walk from="239357573#0" to="239357573#1" />
  </person>
  <person id="ped_176" depart="1448.12" type="adult">
    <walk from="239357573#0" to="239357573#1" />
  </person>
  <person id="ped_177" depart="1457.64" type="adult">
    <walk from="239357573#0" to="239357573#1" />
  </person>
  <person id="ped_178" depart="1459.16" type="adult">
    <walk from="239357573#0" to="239357573#1" />
  </person>
  <person id="ped_179" depart="1465.62" type="adult">
    <walk from="239357573#0" to="239357573#1" />
  </person>
  <person id="ped_180" depart="1469.69" type="adult">
    <walk from="239357573#0" to="239357573#1" />
  </person>
  <person id="ped_181" depart="1470.02" type="adult">
    <walk from="239357573#0" to="239357573#1" />
  </person>
  <person id="ped_182" depart="1486.44" type="adult">
    <walk from="239357573#0" to="239357573#1" />
  </person>
  <person id="ped_183" depart="1497.86" type="adult">
    <walk from="239357573#0" to="239357573#1" />
  </person>
  <person id="ped_184" depart="1507.98" type="elderly">
    <walk from="239357573#0" to="239357573#1" />
  </person>
  <person id="ped_185" depart="1525.34" type="adult">
    <walk from="239357573#0" to="239357573#1" />
  </person>
  <person id="ped_186" depart="1528.67" type="adult">
    <walk from="239357573#0" to="239357573#1" />
  </person>
  <person id="ped_187" depart="1530.30" type="adult">
    <walk from="239357573#0" to="239357573#1" />
  </person>
  <person id="ped_188" depart="1531.26" type="adult">
    <walk from="239357573#0" to="239357573#1" />
  </person>
  <person id="ped_189" depart="1536.46" type="elderly">
    <walk from="239357573#0" to="239357573#1" />
  </person>
  <person id="ped_190" depart="1547.51" type="adult">
    <walk from="239357573#0" to="239357573#1" />
  </person>
  <person id="ped_191" depart="1572.49" type="adult">
    <walk from="239357573#0" to="239357573#1" />
  </person>
  <person id="ped_192" depart="1576.15" type="adult">
    <walk from="239357573#0" to="239357573#1" />
  </person>
  <person id="ped_193" depart="1608.24" type="adult">
    <walk from="239357573#0" to="239357573#1" />
  </person>
  <person id="ped_194" depart="1624.37" type="adult">
    <walk from="239357573#0" to="239357573#1" />
  </person>
  <person id="ped_195" depart="1633.86" type="adult">
    <walk from="239357573#0" to="239357573#1" />
  </person>
  <person id="ped_196" depart="1646.17" type="adult">
    <walk from="239357573#0" to="239357573#1" />
  </person>
  <person id="ped_197" depart="1649.19" type="adult">
    <walk from="239357573#0" to="239357573#1" />
  </person>
  <person id="ped_198" depart="1653.99" type="adult">
    <walk from="239357573#0" to="239357573#1" />
  </person>
  <person id="ped_199" depart="1656.17" type="adult">
    <walk from="239357573#0" to="239357573#1" />
  </person>
  <person id="ped_200" depart="1658.26" type="adult">
    <walk from="239357573#0" to="239357573#1" />
  </person>
  <person id="ped_201" depart="1658.82" type="adult">
    <walk from="239357573#0" to="239357573#1" />
  </person>
  <person id="ped_202" depart="1664.29" type="adult">
    <walk from="239357573#0" to="239357573#1" />
  </person>
  <person id="ped_203" depart="1684.46" type="adult">
    <walk from="239357573#0" to="239357573#1" />
  </person>
  <person id="ped_204" depart="1707.26" type="adult">
    <walk from="239357573#0" to="239357573#1" />
  </person>
  <person id="ped_205" depart="1711.49" type="adult">
    <walk from="239357573#0" to="239357573#1" />
  </person>
  <person id="ped_206" depart="1717.16" type="adult">
    <walk from="239357573#0" to="239357573#1" />
  </person>
  <person id="ped_207" depart="1724.04" type="adult">
    <walk from="239357573#0" to="239357573#1" />
  </person>
  <person id="ped_208" depart="1731.64" type="adult">
    <walk from="239357573#0" to="239357573#1" />
  </person>
  <person id="ped_209" depart="1733.00" type="elderly">
    <walk from="239357573#0" to="239357573#1" />
  </person>
  <person id="ped_210" depart="1742.26" type="adult">
    <walk from="239357573#0" to="239357573#1" />
  </person>
  <person id="ped_211" depart="1759.32" type="adult">
    <walk from="239357573#0" to="239357573#1" />
  </person>
  <person id="ped_212" depart="1765.55" type="adult">
    <walk from="239357573#0" to="239357573#1" />
  </person>
  <person id="ped_213" depart="1765.92" type="adult">
    <walk from="239357573#0" to="239357573#1" />
  </person>
  <person id="ped_214" depart="1775.77" type="adult">
    <walk from="239357573#0" to="239357573#1" />
  </person>
  <person id="ped_215" depart="1776.79" type="adult">
    <walk from="239357573#0" to="239357573#1" />
  </person>
  <person id="ped_216" depart="1780.07" type="adult">
    <walk from="239357573#0" to="239357573#1" />
  </person>
  <person id="ped_217" depart="1790.96" type="adult">
    <walk from="239357573#0" to="239357573#1" />
  </person>
  <person id="ped_218" depart="1792.84" type="elderly">
    <walk from="239357573#0" to="239357573#1" />
  </person>
  <person id="ped_219" depart="1801.07" type="adult">
    <walk from="239357573#0" to="239357573#1" />
  </person>
  <person id="ped_220" depart="1802.54" type="adult">
    <walk from="239357573#0" to="239357573#1" />
  </person>
  <person id="ped_221" depart="1806.36" type="adult">
    <walk from="239357573#0" to="239357573#1" />
  </person>
  <person id="ped_222" depart="1815.21" type="adult">
    <walk from="239357573#0" to="239357573#1" />
  </person>
  <person id="ped_223" depart="1816.53" type="adult">
    <walk from="239357573#0" to="239357573#1" />
  </person>
  <person id="ped_224" depart="1820.73" type="adult">
    <walk from="239357573#0" to="239357573#1" />
  </person>
  <person id="ped_225" depart="1820.84" type="adult">
    <walk from="239357573#0" to="239357573#1" />
  </person>
  <person id="ped_226" depart="1825.19" type="adult">
    <walk from="239357573#0" to="239357573#1" />
  </person>
  <person id="ped_227" depart="1825.57" type="elderly">
    <walk from="239357573#0" to="239357573#1" />
  </person>
  <person id="ped_228" depart="1826.99" type="adult">
    <walk from="239357573#0" to="239357573#1" />
  </person>
  <person id="ped_229" depart="1831.61" type="adult">
    <walk from="239357573#0" to="239357573#1" />
  </person>
  <person id="ped_230" depart="1855.09" type="adult">
    <walk from="239357573#0" to="239357573#1" />
  </person>
  <person id="ped_231" depart="1857.25" type="elderly">
    <walk from="239357573#0" to="239357573#1" />
  </person>
  <person id="ped_232" depart="1895.81" type="adult">
    <walk from="239357573#0" to="239357573#1" />
  </person>
  <person id="ped_233" depart="1896.15" type="adult">
    <walk from="239357573#0" to="239357573#1" />
  </person>
  <person id="ped_234" depart="1900.34" type="adult">
    <walk from="239357573#0" to="239357573#1" />
  </person>
  <person id="ped_235" depart="1918.61" type="adult">
    <walk from="239357573#0" to="239357573#1" />
  </person>
  <person id="ped_236" depart="1926.20" type="adult">
    <walk from="239357573#0" to="239357573#1" />
  </person>
  <person id="ped_237" depart="1926.43" type="adult">
    <walk from="239357573#0" to="239357573#1" />
  </person>
  <person id="ped_238" depart="1958.59" type="adult">
    <walk from="239357573#0" to="239357573#1" />
  </person>
  <person id="ped_239" depart="1962.41" type="elderly">
    <walk from="239357573#0" to="239357573#1" />
  </person>
  <person id="ped_240" depart="1962.68" type="adult">
    <walk from="239357573#0" to="239357573#1" />
  </person>
  <person id="ped_241" depart="1967.11" type="adult">
    <walk from="239357573#0" to="239357573#1" />
  </person>
  <person id="ped_242" depart="1967.43" type="adult">
    <walk from="239357573#0" to="239357573#1" />
  </person>
  <person id="ped_243" depart="1971.27" type="adult">
    <walk from="239357573#0" to="239357573#1" />
  </person>
  <person id="ped_244" depart="1976.88" type="adult">
    <walk from="239357573#0" to="239357573#1" />
  </person>
  <person id="ped_245" depart="1988.76" type="adult">
    <walk from="239357573#0" to="239357573#1" />
  </person>
  <person id="ped_246" depart="2003.71" type="adult">
    <walk from="239357573#0" to="239357573#1" />
  </person>
  <person id="ped_247" depart="2029.12" type="elderly">
    <walk from="239357573#0" to="239357573#1" />
  </person>
  <person id="ped_248" depart="2032.91" type="elderly">
    <walk from="239357573#0" to="239357573#1" />
  </person>
  <person id="ped_249" depart="2036.23" type="adult">
    <walk from="239357573#0" to="239357573#1" />
  </person>
  <person id="ped_250" depart="2040.28" type="adult">
    <walk from="239357573#0" to="239357573#1" />
  </person>
  <person id="ped_251" depart="2063.82" type="adult">
    <walk from="239357573#0" to="239357573#1" />
  </person>
  <person id="ped_252" depart="2067.62" type="elderly">
    <walk from="239357573#0" to="239357573#1" />
  </person>
  <person id="ped_253" depart="2072.98" type="elderly">
    <walk from="239357573#0" to="239357573#1" />
  </person>
  <person id="ped_254" depart="2076.41" type="adult">
    <walk from="239357573#0" to="239357573#1" />
  </person>
  <person id="ped_255" depart="2080.75" type="adult">
    <walk from="239357573#0" to="239357573#1" />
  </person>
  <person id="ped_256" depart="2086.89" type="adult">
    <walk from="239357573#0" to="239357573#1" />
  </person>
  <person id="ped_257" depart="2092.94" type="adult">
    <walk from="239357573#0" to="239357573#1" />
  </person>
  <person id="ped_258" depart="2101.19" type="adult">
    <walk from="239357573#0" to="239357573#1" />
  </person>
  <person id="ped_259" depart="2102.44" type="adult">
    <walk from="239357573#0" to="239357573#1" />