<?xml version="1.0" encoding="UTF-8"?>

<!-- generated on 2026-04-15 00:23:39.754517 by Eclipse SUMO randomTrips.py v1.26.0
<configuration>
    <net-file value="/Users/junlee/Desktop/2026-1/js/result/2026-04-15_00-06-49/sumo_nets/cw_6428/network.net.xml"/>
    <output-trip-file value="/Users/junlee/Desktop/2026-1/js/result/2026-04-15_00-06-49/sumo_nets/cw_6428/routes_seed42.trips.xml"/>
    <route-file value="/Users/junlee/Desktop/2026-1/js/result/2026-04-15_00-06-49/sumo_nets/cw_6428/routes_seed42.rou.xml"/>
    <vehicle-class value="passenger"/>
    <end value="1800.0"/>
    <period value="7.865448464886305"/>
</configuration>
-->

<routes xmlns:xsi="http://www.w3.org/2001/XMLSchema-instance" xsi:noNamespaceSchemaLocation="http://sumo.dlr.de/xsd/routes_file.xsd">
    <vType id="passenger" vClass="passenger"/>
    <trip id="0" depart="0.00" from="-464459668#1" to="-318747848#1" type="passenger"/>
    <trip id="1" depart="7.87" from="-318747850#1" to="243542154#2" type="passenger"/>
    <trip id="2" depart="15.73" from="-318747850#1" to="315658896#4" type="passenger"/>
    <trip id="3" depart="23.60" from="464459665" to="-243542154#0" type="passenger"/>
    <trip id="4" depart="31.46" from="464459665" to="315658900#8" type="passenger"/>
    <trip id="5" depart="39.33" from="-315658896#5" to="-315658896#4" type="passenger"/>
    <trip id="6" depart="47.19" from="464459668#1" to="315658896#5" type="passenger"/>
    <trip id="7" depart="55.06" from="464459665" to="318747850#1" type="passenger"/>
    <trip id="8" depart="62.92" from="318747850#1" to="-315658896#0" type="passenger"/>
    <trip id="9" depart="70.79" from="-464459665" to="-464459667" type="passenger"/>
    <trip id="10" depart="78.65" from="-315658896#4" to="-318747850#0" type="passenger"/>
    <trip id="11" depart="86.52" from="-315658896#5" to="-464459665" type="passenger"/>
    <trip id="12" depart="94.39" from="-315658900#6" to="318747850#1" type="passenger"/>
    <trip id="13" depart="102.25" from="-315658900#5" to="-769488211" type="passenger"/>
    <trip id="14" depart="110.12" from="315658896#4" to="315658900#7" type="passenger"/>
    <trip id="15" depart="117.98" from="-464459665" to="-243542154#2" type="passenger"/>
    <trip id="16" depart="125.85" from="-464461046" to="-464459665" type="passenger"/>
    <trip id="17" depart="133.71" from="-464459668#0" to="-318747850#1" type="passenger"/>
    <trip id="18" depart="141.58" from="315658900#2" to="464461046" type="passenger"/>
    <trip id="19" depart="149.44" from="-315658896#5" to="-315658896#0" type="passenger"/>
    <trip id="20" depart="157.31" from="-464459668#1" to="315658900#3" type="passenger"/>
    <trip id="21" depart="165.17" from="464763971#0" to="-384030398" type="passenger"/>
    <trip id="22" depart="173.04" from="-464461045" to="315658900#3" type="passenger"/>
    <trip id="23" depart="180.91" from="315658900#4" to="-315658900#4" type="passenger"/>
    <trip id="24" depart="188.77" from="384030398" to="244399270" type="passenger"/>
    <trip id="25" depart="196.64" from="-243542154#1" to="-464459668#2" type="passenger"/>
    <trip id="26" depart="204.50" from="-464461046" to="-315658896#1" type="passenger"/>
    <trip id="27" depart="212.37" from="464763971#0" to="773060732#1" type="passenger"/>
    <trip id="28" depart="220.23" from="-315658896#4" to="243542154#1" type="passenger"/>
    <trip id="29" depart="228.10" from="-464459668#0" to="464459668#2" type="passenger"/>
    <trip id="30" depart="235.96" from="315658896#3" to="318747850#1" type="passenger"/>
    <trip id="31" depart="243.83" from="-315658900#8" to="-464459668#1" type="passenger"/>
    <trip id="32" depart="251.69" from="243542154#0" to="243542154#3" type="passenger"/>
    <trip id="33" depart="259.56" from="-464459665" to="-318747848#1" type="passenger"/>
    <trip id="34" depart="267.43" from="464459668#2" to="-315658896#2" type="passenger"/>
    <trip id="35" depart="275.29" from="-464459665" to="315658900#5" type="passenger"/>
    <trip id="36" depart="283.16" from="244399270" to="379943747" type="passenger"/>
    <trip id="37" depart="291.02" from="464461045" to="-318747850#1" type="passenger"/>
    <trip id="38" depart="298.89" from="243542154#1" to="464459668#2" type="passenger"/>
    <trip id="39" depart="306.75" from="315658896#4" to="-315658896#0" type="passenger"/>
    <trip id="40" depart="314.62" from="775222468#0" to="773060732#0" type="passenger"/>
    <trip id="41" depart="322.48" from="464459668#2" to="-315658900#5" type="passenger"/>
    <trip id="42" depart="330.35" from="-315658900#5" to="-464459668#0" type="passenger"/>
    <trip id="43" depart="338.21" from="315658896#0" to="464459668#1" type="passenger"/>
    <trip id="44" depart="346.08" from="315658900#3" to="315658900#6" type="passenger"/>
    <trip id="45" depart="353.95" from="-464459665" to="-315658900#1" type="passenger"/>
    <trip id="46" depart="361.81" from="318747848#1" to="-464459668#0" type="passenger"/>
    <trip id="47" depart="369.68" from="775222468#2" to="775222468#2" type="passenger"/>
    <trip id="48" depart="377.54" from="-315658896#3" to="-318747848#0" type="passenger"/>
    <trip id="49" depart="385.41" from="464459668#0" to="315658900#8" type="passenger"/>
    <trip id="50" depart="393.27" from="464459667" to="-464459668#0" type="passenger"/>
    <trip id="51" depart="401.14" from="-315658900#3" to="-315658900#1" type="passenger"/>
    <trip id="52" depart="409.00" from="-464459668#1" to="315658896#5" type="passenger"/>
    <trip id="53" depart="416.87" from="464459668#1" to="-315658896#4" type="passenger"/>
    <trip id="54" depart="424.73" from="464459668#0" to="315658896#4" type="passenger"/>
    <trip id="55" depart="432.60" from="-315658900#4" to="-315658900#2" type="passenger"/>
    <trip id="56" depart="440.47" from="769488211" to="-318747848#0" type="passenger"/>
    <trip id="57" depart="448.33" from="-464459667" to="-315658900#0" type="passenger"/>
    <trip id="58" depart="456.20" from="464459667" to="464461045" type="passenger"/>
    <trip id="59" depart="464.06" from="464459665" to="464459668#2" type="passenger"/>
    <trip id="60" depart="471.93" from="464459667" to="-464459665" type="passenger"/>
    <trip id="61" depart="479.79" from="464461045" to="464459668#1" type="passenger"/>
    <trip id="62" depart="487.66" from="-318747850#1" to="464459665" type="passenger"/>
    <trip id="63" depart="495.52" from="243542154#2" to="-464459668#1" type="passenger"/>
    <trip id="64" depart="503.39" from="315658900#3" to="243542154#3" type="passenger"/>
    <trip id="65" depart="511.25" from="-464459668#0" to="315658900#8" type="passenger"/>
    <trip id="66" depart="519.12" from="318747848#0" to="-464461045" type="passenger"/>
    <trip id="67" depart="526.99" from="-464461046" to="464459668#0" type="passenger"/>
    <trip id="68" depart="534.85" from="-243542154#1" to="-464459667" type="passenger"/>
    <trip id="69" depart="542.72" from="243542154#0" to="-318747848#0" type="passenger"/>
    <trip id="70" depart="550.58" from="-315658896#4" to="243542154#3" type="passenger"/>
    <trip id="71" depart="558.45" from="318747848#1" to="-318747848#1" type="passenger"/>
    <trip id="72" depart="566.31" from="-315658900#8" to="-243542154#1" type="passenger"/>
    <trip id="73" depart="574.18" from="464459668#2" to="-315658896#2" type="passenger"/>
    <trip id="74" depart="582.04" from="-315658900#8" to="315658900#8" type="passenger"/>
    <trip id="75" depart="589.91" from="315658896#0" to="-318747850#1" type="passenger"/>
    <trip id="76" depart="597.77" from="37399713#3" to="37399713#3" type="passenger"/>
    <trip id="77" depart="605.64" from="315658896#1" to="-315658896#0" type="passenger"/>
    <trip id="78" depart="613.50" from="-464459667" to="464459668#1" type="passenger"/>
    <trip id="79" depart="621.37" from="464763971#2" to="37399713#1" type="passenger"/>
    <trip id="80" depart="629.24" from="-464459667" to="315658900#3" type="passenger"/>
    <trip id="81" depart="637.10" from="315658900#5" to="-464459665" type="passenger"/>
    <trip id="82" depart="644.97" from="-315658896#4" to="-464459667" type="passenger"/>
    <trip id="83" depart="652.83" from="-464459668#1" to="-464459668#2" type="passenger"/>
    <trip id="84" depart="660.70" from="315658896#3" to="-315658900#2" type="passenger"/>
    <trip id="85" depart="668.56" from="-464459665" to="315658900#7" type="passenger"/>
    <trip id="86" depart="676.43" from="318747850#1" to="-315658896#2" type="passenger"/>
    <trip id="87" depart="684.29" from="1379887973#0" to="244399271#1" type="passenger"/>
    <trip id="88" depart="692.16" from="315658900#2" to="315658900#7" type="passenger"/>
    <trip id="89" depart="700.02" from="1379887973#1" to="37399713#2" type="passenger"/>
    <trip id="90" depart="707.89" from="315658896#4" to="315658896#5" type="passenger"/>
    <trip id="91" depart="715.76" from="-318747850#1" to="-318747848#1" type="passenger"/>
    <trip id="92" depart="723.62" from="243542154#0" to="-243542154#2" type="passenger"/>
    <trip id="93" depart="731.49" from="243542154#2" to="-315658900#2" type="passenger"/>
    <trip id="94" depart="739.35" from="315658900#5" to="-243542154#2" type="passenger"/>
    <trip id="95" depart="747.22" from="-243542154#3" to="315658900#3" type="passenger"/>
    <trip id="96" depart="755.08" from="-464459667" to="-315658896#3" type="passenger"/>
    <trip id="97" depart="762.95" from="-243542154#2" to="-315658900#4" type="passenger"/>
    <trip id="98" depart="770.81" from="315658900#0" to="-318747848#1" type="passenger"/>
    <trip id="99" depart="778.68" from="-315658900#6" to="315658896#5" type="passenger"/>
    <trip id="100" depart="786.54" from="-464461046" to="315658900#6" type="passenger"/>
    <trip id="101" depart="794.41" from="464459668#2" to="315658896#5" type="passenger"/>
    <trip id="102" depart="802.28" from="384030398" to="-464763971#0" type="passenger"/>
    <trip id="103" depart="810.14" from="315658896#0" to="-464461045" type="passenger"/>
    <trip id="104" depart="818.01" from="464459668#2" to="464459665" type="passenger"/>
    <trip id="105" depart="825.87" from="37399713#1" to="773060732#3" type="passenger"/>
    <trip id="106" depart="833.74" from="315658896#3" to="243542154#1" type="passenger"/>
    <trip id="107" depart="841.60" from="243542154#0" to="318747850#1" type="passenger"/>
    <trip id="108" depart="849.47" from="-464459668#1" to="464459668#1" type="passenger"/>
    <trip id="109" depart="857.33" from="464459668#0" to="-315658896#3" type="passenger"/>
    <trip id="110" depart="865.20" from="318747850#1" to="-464459665" type="passenger"/>
    <trip id="111" depart="873.06" from="318747850#0" to="315658900#4" type="passenger"/>
    <trip id="112" depart="880.93" from="-315658896#5" to="-318747848#1" type="passenger"/>
    <trip id="113" depart="888.80" from="318747850#0" to="-464459668#1" type="passenger"/>
    <trip id="114" depart="896.66" from="318747850#1" to="-464459665" type="passenger"/>
    <trip id="115" depart="904.53" from="-464459667" to="-315658900#1" type="passenger"/>
    <trip id="116" depart="912.39" from="-315658900#8" to="-315658900#1" type="passenger"/>
    <trip id="117" depart="920.26" from="-315658900#7" to="-318747848#1" type="passenger"/>
    <trip id="118" depart="928.12" from="-464459668#2" to="-315658896#4" type="passenger"/>
    <trip id="119" depart="935.99" from="-315658900#8" to="-318747848#1" type="passenger"/>
    <trip id="120" depart="943.85" from="-315658900#7" to="-243542154#1" type="passenger"/>
    <trip id="121" depart="951.72" from="315658896#3" to="-464459665" type="passenger"/>
    <trip id="122" depart="959.58" from="318747850#1" to="-315658900#1" type="passenger"/>
    <trip id="123" depart="967.45" from="464461045" to="243542154#1" type="passenger"/>
    <trip id="124" depart="975.32" from="-315658900#7" to="-315658896#1" type="passenger"/>
    <trip id="125" depart="983.18" from="315658900#0" to="-464459668#1" type="passenger"/>
    <trip id="126" depart="991.05" from="243542154#0" to="464459668#1" type="passenger"/>
    <trip id="127" depart="998.91" from="37399713#2" to="773060732#1" type="passenger"/>
    <trip id="128" depart="1006.78" from="-318747848#1" to="-318747848#0" type="passenger"/>
    <trip id="129" depart="1014.64" from="318747848#0" to="-315658900#4" type="passenger"/>
    <trip id="130" depart="1022.51" from="-315658900#6" to="-315658896#2" type="passenger"/>
    <trip id="131" depart="1030.37" from="315658900#2" to="-464459668#0" type="passenger"/>
    <trip id="132" depart="1038.24" from="-464459665" to="315658900#8" type="passenger"/>
    <trip id="133" depart="1046.10" from="464459668#0" to="-315658896#2" type="passenger"/>
    <trip id="134" depart="1053.97" from="-315658900#6" to="-464459668#1" type="passenger"/>
    <trip id="135" depart="1061.84" from="-464459668#2" to="-315658900#1" type="passenger"/>
    <trip id="136" depart="1069.70" from="318747850#0" to="315658900#8" type="passenger"/>
    <trip id="137" depart="1077.57" from="315658896#0" to="-315658896#3" type="passenger"/>
    <trip id="138" depart="1085.43" from="318747848#1" to="-464459665" type="passenger"/>
    <trip id="139" depart="1093.30" from="315658900#2" to="315658900#3" type="passenger"/>
    <trip id="140" depart="1101.16" from="318747848#0" to="464459668#1" type="passenger"/>
    <trip id="141" depart="1109.03" from="243542154#1" to="-464459668#1" type="passenger"/>
    <trip id="142" depart="1116.89" from="-464763971#2" to="773060732#3" type="passenger"/>
    <trip id="143" depart="1124.76" from="243542154#0" to="315658900#8" type="passenger"/>
    <trip id="144" depart="1132.62" from="315658900#4" to="-318747850#0" type="passenger"/>
    <trip id="145" depart="1140.49" from="315658896#4" to="-315658896#4" type="passenger"/>
    <trip id="146" depart="1148.36" from="243542154#2" to="-315658900#1" type="passenger"/>
    <trip id="147" depart="1156.22" from="464459668#0" to="243542154#2" type="passenger"/>
    <trip id="148" depart="1164.09" from="-464459668#1" to="464459667" type="passenger"/>
    <trip id="149" depart="1171.95" from="1379887973#0" to="773060732#0" type="passenger"/>
    <trip id="150" depart="1179.82" from="315658896#1" to="464459665" type="passenger"/>
    <trip id="151" depart="1187.68" from="-464459668#2" to="-464459668#0" type="passenger"/>
    <trip id="152" depart="1195.55" from="243542154#1" to="-464459668#2" type="passenger"/>
    <trip id="153" depart="1203.41" from="-315658900#7" to="315658900#8" type="passenger"/>
    <trip id="154" depart="1211.28" from="315658900#1" to="-318747850#0" type="passenger"/>
    <trip id="155" depart="1219.14" from="318747848#0" to="464459665" type="passenger"/>
    <trip id="156" depart="1227.01" from="-243542154#3" to="243542154#2" type="passenger"/>
    <trip id="157" depart="1234.88" from="315658900#2" to="464459668#2" type="passenger"/>
    <trip id="158" depart="1242.74" from="464763971#0" to="1339697074#1" type="passenger"/>
    <trip id="159" depart="1250.61" from="37399713#1" to="-775222468#2" type="passenger"/>
    <trip id="160" depart="1258.47" from="244399270" to="773060732#3" type="passenger"/>
    <trip id="161" depart="1266.34" from="464459668#2" to="464459668#1" type="passenger"/>
    <trip id="162" depart="1274.20" from="37399713#0" to="37399713#2" type="passenger"/>
    <trip id="163" depart="1282.07" from="464461045" to="-243542154#2" type="passenger"/>
    <trip id="164" depart="1289.93" from="-315658896#5" to="315658900#3" type="passenger"/>
    <trip id="165" depart="1297.80" from="-464461045" to="-769488211" type="passenger"/>
    <trip id="166" depart="1305.66" from="-315658900#6" to="-315658896#3" type="passenger"/>
    <trip id="167" depart="1313.53" from="769488211" to="315658900#6" type="passenger"/>
    <trip id="168" depart="1321.40" from="-464459667" to="464459668#0" type="passenger"/>
    <trip id="169" depart="1329.26" from="318747848#1" to="318747848#1" type="passenger"/>
    <trip id="170" depart="1337.13" from="318747848#0" to="464459668#0" type="passenger"/>
    <trip id="171" depart="1344.99" from="-315658900#6" to="-315658900#2" type="passenger"/>
    <trip id="172" depart="1352.86" from="464459668#0" to="243542154#1" type="passenger"/>
    <trip id="173" depart="1360.72" from="1339697074#0" to="379943751" type="passenger"/>
    <trip id="174" depart="1368.59" from="243542154#1" to="315658900#6" type="passenger"/>
    <trip id="175" depart="1376.45" from="318747848#1" to="315658896#4" type="passenger"/>
    <trip id="176" depart="1384.32" from="-243542154#2" to="464461045" type="passenger"/>
    <trip id="177" depart="1392.18" from="-318747850#1" to="-315658896#1" type="passenger"/>
    <trip id="178" depart="1400.05" from="-464461046" to="243542154#1" type="passenger"/>
    <trip id="179" depart="1407.92" from="-315658896#5" to="464461046" type="passenger"/>
    <trip id="180" depart="1415.78" from="244399271#1" to="-775222468#2" type="passenger"/>
    <trip id="181" depart="1423.65" from="-315658896#5" to="315658900#7" type="passenger"/>
    <trip id="182" depart="1431.51" from="1339697074#0" to="-775222468#1" type="passenger"/>
    <trip id="183" depart="1439.38" from="-315658900#7" to="-315658900#1" type="passenger"/>
    <trip id="184" depart="1447.24" from="318747848#0" to="315658900#3" type="passenger"/>
    <trip id="185" depart="1455.11" from="315658900#3" to="-243542154#1" type="passenger"/>
    <trip id="186" depart="1462.97" from="-318747848#1" to="-318747848#1" type="passenger"/>
    <trip id="187" depart="1470.84" from="464461045" to="-464459668#2" type="passenger"/>
    <trip id="188" depart="1478.70" from="-243542154#1" to="464459668#1" type="passenger"/>
    <trip id="189" depart="1486.57" from="-315658900#4" to="-315658900#2" type="passenger"/>
    <trip id="190" depart="1494.44" from="-464459667" to="-315658900#5" type="passenger"/>
    <trip id="191" depart="1502.30" from="318747848#0" to="-243542154#2" type="passenger"/>
    <trip id="192" depart="1510.17" from="-464459665" to="-464459668#2" type="passenger"/>
    <trip id="193" depart="1518.03" from="-315658900#6" to="-315658896#1" type="passenger"/>
    <trip id="194" depart="1525.90" from="244399270" to="-775222468#1" type="passenger"/>
    <trip id="195" depart="1533.76" from="318747850#0" to="243542154#1" type="passenger"/>
    <trip id="196" depart="1541.63" from="769488211" to="-315658896#2" type="passenger"/>
    <trip id="197" depart="1549.49" from="315658900#3" to="-315658896#4" type="passenger"/>
    <trip id="198" depart="1557.36" from="318747850#1" to="464459668#1" type="passenger"/>
    <trip id="199" depart="1565.22" from="243542154#1" to="-318747850#0" type="passenger"/>
    <trip id="200" depart="1573.09" from="464459668#0" to="-315658896#4" type="passenger"/>
    <trip id="201" depart="1580.96" from="37399713#0" to="773060732#3" type="passenger"/>
    <trip id="202" depart="1588.82" from="315658900#1" to="-318747848#0" type="passenger"/>
    <trip id="203" depart="1596.69" from="1339697074#1" to="37399713#3" type="passenger"/>
    <trip id="204" depart="1604.55" from="318747850#1" to="-464459668#1" type="passenger"/>
    <trip id="205" depart="1612.42" from="-315658896#4" to="-315658896#1" type="passenger"/>
    <trip id="206" depart="1620.28" from="318747848#1" to="-464459665" type="passenger"/>
    <trip id="207" depart="1628.15" from="318747848#0" to="243542154#1" type="passenger"/>
    <trip id="208" depart="1636.01" from="243542154#0" to="-464459665" type="passenger"/>
    <trip id="209" depart="1643.88" from="318747848#1" to="243542154#1" type="passenger"/>
    <trip id="210" depart="1651.74" from="318747848#0" to="-315658896#0" type="passenger"/>
    <trip id="211" depart="1659.61" from="-243542154#1" to="-464459668#0" type="passenger"/>
    <trip id="212" depart="1667.48" from="-464459668#0" to="-464459668#2" type="passenger"/>
    <trip id="213" depart="1675.34" from="318747850#1" to="243542154#2" type="passenger"/>
    <trip id="214" depart="1683.21" from="37399713#0" to="-775222468#2" type="passenger"/>
    <trip id="215" depart="1691.07" from="-464763971#2" to="394102601" type="passenger"/>
    <trip id="216" depart="1698.94" from="315658900#4" to="464459667" type="passenger"/>
    <trip id="217" depart="1706.80" from="464459668#1" to="-318747850#1" type="passenger"/>
    <trip id="218" depart="1714.67" from="-315658900#6" to="243542154#3" type="passenger"/>
    <trip id="219" depart="1722.53" from="464459667" to="-318747850#0" type="passenger"/>
    <trip id="220" depart="1730.40" from="37399713#3" to="37399713#3" type="passenger"/>
    <trip id="221" depart="1738.26" from="315658900#0" to="315658900#3" type="passenger"/>
    <trip id="222" depart="1746.13" from="315658900#5" to="464459668#2" type="passenger"/>
    <trip id="223" depart="1754.00" from="315658900#5" to="-315658900#3" type="passenger"/>
    <trip id="224" depart="1761.86" from="-464461045" to="-464459665" type="passenger"/>
    <trip id="225" depart="1769.73" from="-315658896#4" to="464459668#2" type="passenger"/>
    <trip id="226" depart="1777.59" from="464459665" to="315658900#4" type="passenger"/>
    <trip id="227" depart="1785.46" from="-464763971#2" to="1379887973#1" type="passenger"/>
    <trip id="228" depart="1793.32" from="-315658900#4" to="-315658896#1" type="passenger"/>
</routes>
