<?xml version='1.0' encoding='utf-8'?>
<configuration>
  <input>
    <net-file value="/Users/junlee/Desktop/2026-1/js/result/2026-04-15_00-06-49/sumo_nets/cw_6428/network.net.xml" />
    <route-files value="/Users/junlee/Desktop/2026-1/js/result/2026-04-15_00-06-49/sumo_nets/cw_6428/routes_seed42.rou.xml,/Users/junlee/Desktop/2026-1/js/result/2026-04-15_00-06-49/sumo_nets/cw_6428/peds_seed42.rou.xml" />
  </input>
  <time>
    <begin value="0" />
    <end value="2100" />
    <step-length value="0.1" />
  </time>
  <processing>
    <time-to-teleport value="300" />
    <pedestrian.model value="striping" />
  </processing>
  <report>
    <no-step-log value="true" />
    <duration-log.disable value="true" />
  </report>
</configuration>