<?xml version="1.0" encoding="UTF-8"?>

<!-- generated on 2026-04-17 02:57:27.165042 by Eclipse SUMO randomTrips.py v1.26.0
<configuration>
    <net-file value="/Users/junlee/Desktop/2026-1/js/result/tradeoff_pet_top12_seed12_60min_20260417_025716/sumo_nets/cw_23040/network.net.xml"/>
    <output-trip-file value="/Users/junlee/Desktop/2026-1/js/result/tradeoff_pet_top12_seed12_60min_20260417_025716/sumo_nets/cw_23040/routes_seed53.trips.xml"/>
    <route-file value="/Users/junlee/Desktop/2026-1/js/result/tradeoff_pet_top12_seed12_60min_20260417_025716/sumo_nets/cw_23040/routes_seed53.rou.xml"/>
    <vehicle-class value="passenger"/>
    <seed value="53"/>
    <period value="1.6893342601426011"/>
</configuration>
-->

<routes xmlns:xsi="http://www.w3.org/2001/XMLSchema-instance" xsi:noNamespaceSchemaLocation="http://sumo.dlr.de/xsd/routes_file.xsd">
    <vType id="passenger" vClass="passenger"/>
    <trip id="0" depart="0.00" from="1339655668" to="384030401#1" type="passenger"/>
    <trip id="1" depart="1.69" from="376666932#0" to="464445691#0" type="passenger"/>
    <trip id="2" depart="3.38" from="376666932#1" to="-516163750#0" type="passenger"/>
    <trip id="3" depart="5.07" from="376666932#1" to="-376666931#3" type="passenger"/>
    <trip id="4" depart="6.76" from="-384030401#2" to="-376666931#1" type="passenger"/>
    <trip id="5" depart="8.45" from="778973690" to="-224260190#2" type="passenger"/>
    <trip id="6" depart="10.14" from="-516163750#1" to="-376666921" type="passenger"/>
    <trip id="7" depart="11.83" from="376666931#0" to="1339655668" type="passenger"/>
    <trip id="8" depart="13.51" from="464445691#0" to="464445691#3" type="passenger"/>
    <trip id="9" depart="15.20" from="376666931#0" to="585341906#2" type="passenger"/>
    <trip id="10" depart="16.89" from="-224260190#3" to="224260190#2" type="passenger"/>
    <trip id="11" depart="18.58" from="1206220503#1" to="-778973690" type="passenger"/>
    <trip id="12" depart="20.27" from="-384030401#0" to="333554718" type="passenger"/>
    <trip id="13" depart="21.96" from="-384030401#2" to="224260190#0" type="passenger"/>
    <trip id="14" depart="23.65" from="-376666932#1" to="631259843" type="passenger"/>
    <trip id="15" depart="25.34" from="376666921" to="224260190#2" type="passenger"/>
    <trip id="16" depart="27.03" from="-384030401#2" to="585341907#0" type="passenger"/>
    <trip id="17" depart="28.72" from="331990404#1" to="-376666931#0" type="passenger"/>
    <trip id="18" depart="30.41" from="376666931#4" to="333554718" type="passenger"/>
    <trip id="19" depart="32.10" from="-778973690" to="-516163750#0" type="passenger"/>
    <trip id="20" depart="33.79" from="376666931#2" to="-516163750#0" type="passenger"/>
    <trip id="21" depart="35.48" from="464445692#1" to="631259844" type="passenger"/>
    <trip id="22" depart="37.17" from="218962181" to="376666931#3" type="passenger"/>
    <trip id="23" depart="38.85" from="376666930#0" to="376666931#3" type="passenger"/>
    <trip id="24" depart="40.54" from="-384030401#1" to="516163750#1" type="passenger"/>
    <trip id="25" depart="42.23" from="-224260190#3" to="-516163750#1" type="passenger"/>
    <trip id="26" depart="43.92" from="331990404#1" to="-224260190#0" type="passenger"/>
    <trip id="27" depart="45.61" from="376666916#0" to="-778973690" type="passenger"/>
    <trip id="28" depart="47.30" from="1206220503#0" to="376666916#1" type="passenger"/>
    <trip id="29" depart="48.99" from="-224260190#3" to="585341907#0" type="passenger"/>
    <trip id="30" depart="50.68" from="331990404#1" to="585341906#2" type="passenger"/>
    <trip id="31" depart="52.37" from="376666930#1" to="376666931#3" type="passenger"/>
    <trip id="32" depart="54.06" from="464445691#0" to="376666931#3" type="passenger"/>
    <trip id="33" depart="55.75" from="-1339655668" to="464445692#1" type="passenger"/>
    <trip id="34" depart="57.44" from="778973690" to="1339655668" type="passenger"/>
    <trip id="35" depart="59.13" from="615671505#0" to="-384030401#1" type="passenger"/>
    <trip id="36" depart="60.82" from="376666930#0" to="516163750#1" type="passenger"/>
    <trip id="37" depart="62.51" from="-376666930#2" to="333554718" type="passenger"/>
    <trip id="38" depart="64.19" from="-631259844" to="224260190#1" type="passenger"/>
    <trip id="39" depart="65.88" from="1206220504#0" to="-224260190#1" type="passenger"/>
    <trip id="40" depart="67.57" from="376666930#2" to="464445691#0" type="passenger"/>
    <trip id="41" depart="69.26" from="-631259843" to="-384030401#0" type="passenger"/>
    <trip id="42" depart="70.95" from="376666930#0" to="219696191#1" type="passenger"/>
    <trip id="43" depart="72.64" from="516163750#0" to="464445691#1" type="passenger"/>
    <trip id="44" depart="74.33" from="218962181" to="333554718" type="passenger"/>
    <trip id="45" depart="76.02" from="-778973690" to="376666932#1" type="passenger"/>
    <trip id="46" depart="77.71" from="376666921" to="-778973690" type="passenger"/>
    <trip id="47" depart="79.40" from="913268036" to="-376666916#0" type="passenger"/>
    <trip id="48" depart="81.09" from="-767111811#2" to="-767111811#1" type="passenger"/>
    <trip id="49" depart="82.78" from="1339655669" to="585341906#2" type="passenger"/>
    <trip id="50" depart="84.47" from="-631259844" to="-376666931#4" type="passenger"/>
    <trip id="51" depart="86.16" from="-224260190#0" to="-376666931#0" type="passenger"/>
    <trip id="52" depart="87.85" from="376666931#1" to="-376666916#0" type="passenger"/>
    <trip id="53" depart="89.53" from="-651817398#2" to="-651817398#0" type="passenger"/>
    <trip id="54" depart="91.22" from="464445692#1" to="585341906#2" type="passenger"/>
    <trip id="55" depart="92.91" from="-224260190#2" to="-376666931#1" type="passenger"/>
    <trip id="56" depart="94.60" from="-464445691#3" to="-376666931#2" type="passenger"/>
    <trip id="57" depart="96.29" from="1206220503#1" to="376666931#4" type="passenger"/>
    <trip id="58" depart="97.98" from="1206220503#1" to="376666931#3" type="passenger"/>
    <trip id="59" depart="99.67" from="376666930#0" to="-376666932#0" type="passenger"/>
    <trip id="60" depart="101.36" from="218962181" to="376666932#1" type="passenger"/>
    <trip id="61" depart="103.05" from="778973690" to="767111811#2" type="passenger"/>
    <trip id="62" depart="104.74" from="-224260190#2" to="585341907#2" type="passenger"/>
    <trip id="63" depart="106.43" from="-778973690" to="778973690" type="passenger"/>
    <trip id="64" depart="108.12" from="585352852#1" to="631259844" type="passenger"/>
    <trip id="65" depart="109.81" from="-376666930#2" to="1206220503#0" type="passenger"/>
    <trip id="66" depart="111.50" from="-376666930#2" to="-224260190#2" type="passenger"/>
    <trip id="67" depart="113.19" from="-384030401#2" to="619147740" type="passenger"/>
    <trip id="68" depart="114.87" from="464445692#1" to="376666930#0" type="passenger"/>
    <trip id="69" depart="116.56" from="-631259843" to="-376666930#2" type="passenger"/>
    <trip id="70" depart="118.25" from="-376666930#1" to="376666930#0" type="passenger"/>
    <trip id="71" depart="119.94" from="-464445691#3" to="-376666931#3" type="passenger"/>
    <trip id="72" depart="121.63" from="516163750#1" to="464445692#0" type="passenger"/>
    <trip id="73" depart="123.32" from="-224260190#3" to="-376666931#1" type="passenger"/>
    <trip id="74" depart="125.01" from="464445692#1" to="-376666931#3" type="passenger"/>
    <trip id="75" depart="126.70" from="376666932#0" to="-376666931#2" type="passenger"/>
    <trip id="76" depart="128.39" from="-376666921" to="376666931#4" type="passenger"/>
    <trip id="77" depart="130.08" from="585352852#1" to="376666931#4" type="passenger"/>
    <trip id="78" depart="131.77" from="585352852#0" to="376666931#4" type="passenger"/>
    <trip id="79" depart="133.46" from="1206220504#0" to="1206223946#1" type="passenger"/>
    <trip id="80" depart="135.15" from="516163750#1" to="-376666916#0" type="passenger"/>
    <trip id="81" depart="136.84" from="218962181" to="-376666930#1" type="passenger"/>
    <trip id="82" depart="138.53" from="-376666930#2" to="376666930#0" type="passenger"/>
    <trip id="83" depart="140.21" from="224260190#2" to="-376666931#3" type="passenger"/>
    <trip id="84" depart="141.90" from="464445692#0" to="224260190#1" type="passenger"/>
    <trip id="85" depart="143.59" from="376666931#3" to="1206220503#1" type="passenger"/>
    <trip id="86" depart="145.28" from="331990404#3" to="224260190#1" type="passenger"/>
    <trip id="87" depart="146.97" from="-384030401#0" to="767111811#1" type="passenger"/>
    <trip id="88" depart="148.66" from="1206220503#0" to="-516163750#0" type="passenger"/>
    <trip id="89" depart="150.35" from="376666916#0" to="219696191#1" type="passenger"/>
    <trip id="90" depart="152.04" from="376666931#1" to="-384030401#1" type="passenger"/>
    <trip id="91" depart="153.73" from="1206220504#0" to="376666930#1" type="passenger"/>
    <trip id="92" depart="155.42" from="516163750#0" to="224260190#2" type="passenger"/>
    <trip id="93" depart="157.11" from="384030401#1" to="516163750#1" type="passenger"/>
    <trip id="94" depart="158.80" from="464445691#1" to="-376666931#2" type="passenger"/>
    <trip id="95" depart="160.49" from="384030401#0" to="767111811#1" type="passenger"/>
    <trip id="96" depart="162.18" from="464445691#1" to="376666931#3" type="passenger"/>
    <trip id="97" depart="163.87" from="-224260190#0" to="1206220503#1" type="passenger"/>
    <trip id="98" depart="165.55" from="-224260190#3" to="384030401#0" type="passenger"/>
    <trip id="99" depart="167.24" from="-376666930#1" to="1206223946#1" type="passenger"/>
    <trip id="100" depart="168.93" from="913268036" to="1206220503#0" type="passenger"/>
    <trip id="101" depart="170.62" from="331990404#0" to="-376666930#2" type="passenger"/>
    <trip id="102" depart="172.31" from="585352852#1" to="631259844" type="passenger"/>
    <trip id="103" depart="174.00" from="1206220504#1" to="-376666930#1" type="passenger"/>
    <trip id="104" depart="175.69" from="615671505#0" to="331990404#0" type="passenger"/>
    <trip id="105" depart="177.38" from="1206220504#0" to="-376666931#3" type="passenger"/>
    <trip id="106" depart="179.07" from="516163750#0" to="219696191#1" type="passenger"/>
    <trip id="107" depart="180.76" from="464445691#0" to="-376666931#4" type="passenger"/>
    <trip id="108" depart="182.45" from="-376666916#0" to="-376666931#3" type="passenger"/>
    <trip id="109" depart="184.14" from="1339655669" to="-778973690" type="passenger"/>
    <trip id="110" depart="185.83" from="376666931#2" to="376666932#1" type="passenger"/>
    <trip id="111" depart="187.52" from="516163750#0" to="1206220503#1" type="passenger"/>
    <trip id="112" depart="189.21" from="464445692#1" to="-1339655668" type="passenger"/>
    <trip id="113" depart="190.89" from="585341906#2" to="767111811#2" type="passenger"/>
    <trip id="114" depart="192.58" from="-376666930#1" to="-224260190#0" type="passenger"/>
    <trip id="115" depart="194.27" from="-516163750#0" to="-376666931#4" type="passenger"/>
    <trip id="116" depart="195.96" from="376666931#3" to="333554718" type="passenger"/>
    <trip id="117" depart="197.65" from="224260190#0" to="-1339655669" type="passenger"/>
    <trip id="118" depart="199.34" from="376666931#0" to="333554718" type="passenger"/>
    <trip id="119" depart="201.03" from="-464445691#3" to="-384030401#0" type="passenger"/>
    <trip id="120" depart="202.72" from="-376666916#1" to="585341907#0" type="passenger"/>
    <trip id="121" depart="204.41" from="-778973690" to="-224260190#2" type="passenger"/>
    <trip id="122" depart="206.10" from="-376666932#1" to="224260190#0" type="passenger"/>
    <trip id="123" depart="207.79" from="-384030401#1" to="516163750#1" type="passenger"/>
    <trip id="124" depart="209.48" from="516163750#0" to="619147740" type="passenger"/>
    <trip id="125" depart="211.17" from="585352852#1" to="384030401#0" type="passenger"/>
    <trip id="126" depart="212.86" from="1206223946#1" to="767111811#1" type="passenger"/>
    <trip id="127" depart="214.55" from="615671505#0" to="619147740" type="passenger"/>
    <trip id="128" depart="216.23" from="-778973690" to="1206220503#0" type="passenger"/>
    <trip id="129" depart="217.92" from="331990404#0" to="464445691#3" type="passenger"/>
    <trip id="130" depart="219.61" from="-1339655668" to="333554718" type="passenger"/>
    <trip id="131" depart="221.30" from="218962181" to="-1339655669" type="passenger"/>
    <trip id="132" depart="222.99" from="464445692#0" to="333554718" type="passenger"/>
    <trip id="133" depart="224.68" from="376666916#0" to="-516163750#1" type="passenger"/>
    <trip id="134" depart="226.37" from="376666932#0" to="376666930#1" type="passenger"/>
    <trip id="135" depart="228.06" from="-224260190#2" to="384030401#2" type="passenger"/>
    <trip id="136" depart="229.75" from="376666932#0" to="-376666931#4" type="passenger"/>
    <trip id="137" depart="231.44" from="778973690" to="376666930#2" type="passenger"/>
    <trip id="138" depart="233.13" from="1206220503#0" to="-384030401#1" type="passenger"/>
    <trip id="139" depart="234.82" from="1206220503#1" to="464445692#0" type="passenger"/>
    <trip id="140" depart="236.51" from="585352852#1" to="767111811#1" type="passenger"/>
    <trip id="141" depart="238.20" from="-224260190#3" to="767111811#1" type="passenger"/>
    <trip id="142" depart="239.89" from="376666916#0" to="767111811#2" type="passenger"/>
    <trip id="143" depart="241.57" from="384030401#1" to="-376666916#0" type="passenger"/>
    <trip id="144" depart="243.26" from="-376666916#1" to="333554718" type="passenger"/>
    <trip id="145" depart="244.95" from="585352852#0" to="376666916#1" type="passenger"/>
    <trip id="146" depart="246.64" from="-376666930#1" to="-224260190#1" type="passenger"/>
    <trip id="147" depart="248.33" from="615671505#0" to="376666931#3" type="passenger"/>
    <trip id="148" depart="250.02" from="516163750#0" to="1206220503#1" type="passenger"/>
    <trip id="149" depart="251.71" from="224260190#0" to="224260190#2" type="passenger"/>
    <trip id="150" depart="253.40" from="-376666930#1" to="-376666932#1" type="passenger"/>
    <trip id="151" depart="255.09" from="1206220507#0" to="585341907#2" type="passenger"/>
    <trip id="152" depart="256.78" from="224260190#1" to="376666930#1" type="passenger"/>
    <trip id="153" depart="258.47" from="464445691#1" to="1206220503#1" type="passenger"/>
    <trip id="154" depart="260.16" from="376666930#1" to="376666931#3" type="passenger"/>
    <trip id="155" depart="261.85" from="376666931#4" to="-224260190#0" type="passenger"/>
    <trip id="156" depart="263.54" from="224260190#0" to="376666916#2" type="passenger"/>
    <trip id="157" depart="265.23" from="464445691#0" to="516163750#0" type="passenger"/>
    <trip id="158" depart="266.91" from="-516163750#1" to="224260190#3" type="passenger"/>
    <trip id="159" depart="268.60" from="-778973690" to="516163750#1" type="passenger"/>
    <trip id="160" depart="270.29" from="376666932#1" to="1206220503#0" type="passenger"/>
    <trip id="161" depart="271.98" from="615671505#0" to="1206220503#1" type="passenger"/>
    <trip id="162" depart="273.67" from="464445692#0" to="516163750#1" type="passenger"/>
    <trip id="163" depart="275.36" from="516163750#0" to="464445692#1" type="passenger"/>
    <trip id="164" depart="277.05" from="-376666930#0" to="464445692#1" type="passenger"/>
    <trip id="165" depart="278.74" from="1206220504#0" to="516163750#0" type="passenger"/>
    <trip id="166" depart="280.43" from="585352852#1" to="619147740" type="passenger"/>
    <trip id="167" depart="282.12" from="376666916#0" to="376666931#3" type="passenger"/>
    <trip id="168" depart="283.81" from="-376666931#4" to="224260190#3" type="passenger"/>
    <trip id="169" depart="285.50" from="-224260190#2" to="376666916#1" type="passenger"/>
    <trip id="170" depart="287.19" from="376666931#0" to="-376666921" type="passenger"/>
    <trip id="171" depart="288.88" from="-224260190#2" to="-384030401#1" type="passenger"/>
    <trip id="172" depart="290.57" from="-376666921" to="1206223946#1" type="passenger"/>
    <trip id="173" depart="292.25" from="-384030401#0" to="516163750#0" type="passenger"/>
    <trip id="174" depart="293.94" from="331990404#0" to="218962181" type="passenger"/>
    <trip id="175" depart="295.63" from="376666931#0" to="384030401#1" type="passenger"/>
    <trip id="176" depart="297.32" from="376666932#0" to="-1339655669" type="passenger"/>
    <trip id="177" depart="299.01" from="224260190#1" to="376666931#4" type="passenger"/>
    <trip id="178" depart="300.70" from="219696191#0" to="219696191#1" type="passenger"/>
    <trip id="179" depart="302.39" from="-376666921" to="-224260190#2" type="passenger"/>
    <trip id="180" depart="304.08" from="-224260190#3" to="376666930#1" type="passenger"/>
    <trip id="181" depart="305.77" from="1206220503#0" to="464445691#0" type="passenger"/>
    <trip id="182" depart="307.46" from="464445692#0" to="-376666930#2" type="passenger"/>
    <trip id="183" depart="309.15" from="615671505#0" to="464445692#1" type="passenger"/>
    <trip id="184" depart="310.84" from="224260190#0" to="224260190#1" type="passenger"/>
    <trip id="185" depart="312.53" from="1206220504#0" to="376666930#1" type="passenger"/>
    <trip id="186" depart="314.22" from="-376666921" to="464445691#1" type="passenger"/>
    <trip id="187" depart="315.91" from="376666931#1" to="-516163750#0" type="passenger"/>
    <trip id="188" depart="317.59" from="-464445691#1" to="767111811#1" type="passenger"/>
    <trip id="189" depart="319.28" from="1206220503#1" to="224260190#3" type="passenger"/>
    <trip id="190" depart="320.97" from="-778973690" to="464445691#1" type="passenger"/>
    <trip id="191" depart="322.66" from="-631259843" to="376666921" type="passenger"/>
    <trip id="192" depart="324.35" from="1206220503#1" to="-376666931#3" type="passenger"/>
    <trip id="193" depart="326.04" from="224260190#0" to="-376666930#1" type="passenger"/>
    <trip id="194" depart="327.73" from="384030401#0" to="-376666930#0" type="passenger"/>
    <trip id="195" depart="329.42" from="-224260190#2" to="376666930#2" type="passenger"/>
    <trip id="196" depart="331.11" from="376666931#1" to="376666931#3" type="passenger"/>
    <trip id="197" depart="332.80" from="224260190#2" to="-376666916#0" type="passenger"/>
    <trip id="198" depart="334.49" from="218962181" to="376666930#1" type="passenger"/>
    <trip id="199" depart="336.18" from="-376666930#2" to="767111811#2" type="passenger"/>
    <trip id="200" depart="337.87" from="585352852#1" to="1206220504#1" type="passenger"/>
    <trip id="201" depart="339.56" from="-376666930#1" to="376666916#1" type="passenger"/>
    <trip id="202" depart="341.25" from="-376666916#0" to="-376666931#3" type="passenger"/>
    <trip id="203" depart="342.93" from="585352852#0" to="464445691#3" type="passenger"/>
    <trip id="204" depart="344.62" from="-376666916#0" to="767111811#1" type="passenger"/>
    <trip id="205" depart="346.31" from="464445691#1" to="-224260190#0" type="passenger"/>
    <trip id="206" depart="348.00" from="376666916#0" to="224260190#2" type="passenger"/>
    <trip id="207" depart="349.69" from="615671505#2" to="1206220508" type="passenger"/>
    <trip id="208" depart="351.38" from="464445692#1" to="-384030401#0" type="passenger"/>
    <trip id="209" depart="353.07" from="-376666930#0" to="-376666921" type="passenger"/>
    <trip id="210" depart="354.76" from="-224260190#0" to="376666916#0" type="passenger"/>
    <trip id="211" depart="356.45" from="224260190#2" to="585341906#2" type="passenger"/>
    <trip id="212" depart="358.14" from="-516163750#1" to="-224260190#2" type="passenger"/>
    <trip id="213" depart="359.83" from="376666931#0" to="-376666931#1" type="passenger"/>
    <trip id="214" depart="361.52" from="585352852#1" to="376666930#0" type="passenger"/>
    <trip id="215" depart="363.21" from="376666931#3" to="464445691#3" type="passenger"/>
    <trip id="216" depart="364.90" from="585352852#0-AddedOffRampEdge" to="376666930#2" type="passenger"/>
    <trip id="217" depart="366.59" from="331990404#0" to="384030401#0" type="passenger"/>
    <trip id="218" depart="368.27" from="-516163750#1" to="631259844" type="passenger"/>
    <trip id="219" depart="369.96" from="585352852#1" to="-516163750#0" type="passenger"/>
    <trip id="220" depart="371.65" from="376666931#1" to="585341907#2" type="passenger"/>
    <trip id="221" depart="373.34" from="376666932#1" to="619147740" type="passenger"/>
    <trip id="222" depart="375.03" from="-464445691#3" to="464445692#0" type="passenger"/>
    <trip id="223" depart="376.72" from="464445691#1" to="376666916#0" type="passenger"/>
    <trip id="224" depart="378.41" from="615671505#0" to="-376666916#0" type="passenger"/>
    <trip id="225" depart="380.10" from="-376666916#0" to="585341906#2" type="passenger"/>
    <trip id="226" depart="381.79" from="464445691#0" to="-376666916#0" type="passenger"/>
    <trip id="227" depart="383.48" from="218962181" to="1206223946#1" type="passenger"/>
    <trip id="228" depart="385.17" from="376666930#1" to="37402371" type="passenger"/>
    <trip id="229" depart="386.86" from="-376666930#0" to="619147740" type="passenger"/>
    <trip id="230" depart="388.55" from="376666932#1" to="376666916#0" type="passenger"/>
    <trip id="231" depart="390.24" from="1206220504#1" to="-384030401#0" type="passenger"/>
    <trip id="232" depart="391.93" from="376666930#1" to="-376666930#0" type="passenger"/>
    <trip id="233" depart="393.61" from="-376666921" to="376666916#1" type="passenger"/>
    <trip id="234" depart="395.30" from="585352852#1" to="218962181" type="passenger"/>
    <trip id="235" depart="396.99" from="-1339655668" to="-224260190#2" type="passenger"/>
    <trip id="236" depart="398.68" from="384030401#1" to="-376666930#0" type="passenger"/>
    <trip id="237" depart="400.37" from="218962181" to="384030401#2" type="passenger"/>
    <trip id="238" depart="402.06" from="333554718" to="585341906#2" type="passenger"/>
    <trip id="239" depart="403.75" from="-464445691#1" to="767111811#1" type="passenger"/>
    <trip id="240" depart="405.44" from="1206223946#1" to="1206223946#1" type="passenger"/>
    <trip id="241" depart="407.13" from="-376666931#4" to="-376666930#1" type="passenger"/>
    <trip id="242" depart="408.82" from="376666930#0" to="464445692#0" type="passenger"/>
    <trip id="243" depart="410.51" from="224260190#1" to="-376666930#1" type="passenger"/>
    <trip id="244" depart="412.20" from="-224260190#1" to="778973690" type="passenger"/>
    <trip id="245" depart="413.89" from="585352852#0-AddedOffRampEdge" to="376666931#4" type="passenger"/>
    <trip id="246" depart="415.58" from="-376666916#1" to="-1339655668" type="passenger"/>
    <trip id="247" depart="417.27" from="-376666932#1" to="376666930#1" type="passenger"/>
    <trip id="248" depart="418.95" from="376666931#0" to="224260190#0" type="passenger"/>
    <trip id="249" depart="420.64" from="-224260190#1" to="-224260190#2" type="passenger"/>
    <trip id="250" depart="422.33" from="376666930#2" to="376666932#1" type="passenger"/>
    <trip id="251" depart="424.02" from="224260190#2" to="333554718" type="passenger"/>
    <trip id="252" depart="425.71" from="-464445691#3" to="1206223946#1" type="passenger"/>
    <trip id="253" depart="427.40" from="376666930#1" to="376666930#2" type="passenger"/>
    <trip id="254" depart="429.09" from="376666931#1" to="-1339655669" type="passenger"/>
    <trip id="255" depart="430.78" from="376666930#1" to="464445692#1" type="passenger"/>
    <trip id="256" depart="432.47" from="-516163750#1" to="-376666932#1" type="passenger"/>
    <trip id="257" depart="434.16" from="1206220507#0" to="-376666916#0" type="passenger"/>
    <trip id="258" depart="435.85" from="1339655669" to="376666921" type="passenger"/>
    <trip id="259" depart="437.54" from="384030401#0" to="-224260190#2" type="passenger"/>
    <trip id="260" depart="439.23" from="516163750#0" to="-516163750#1" type="passenger"/>
    <trip id="261" depart="440.92" from="-631259843" to="219696191#0" type="passenger"/>
    <trip id="262" depart="442.61" from="1206220503#1" to="585341906#2" type="passenger"/>
    <trip id="263" depart="444.29" from="-224260190#2" to="464445691#0" type="passenger"/>
    <trip id="264" depart="445.98" from="1206220507#0" to="1206220503#1" type="passenger"/>
    <trip id="265" depart="447.67" from="218962181" to="376666930#0" type="passenger"/>
    <trip id="266" depart="449.36" from="376666931#2" to="585341906#0" type="passenger"/>
    <trip id="267" depart="451.05" from="-224260190#3" to="376666921" type="passenger"/>
    <trip id="268" depart="452.74" from="-631259844" to="219696191#1" type="passenger"/>
    <trip id="269" depart="454.43" from="376666931#2" to="224260190#3" type="passenger"/>
    <trip id="270" depart="456.12" from="-224260190#2" to="-376666916#0" type="passenger"/>
    <trip id="271" depart="457.81" from="376666931#0" to="-376666921" type="passenger"/>
    <trip id="272" depart="459.50" from="-516163750#1" to="376666930#1" type="passenger"/>
    <trip id="273" depart="461.19" from="-376666916#1" to="1206220503#1" type="passenger"/>
    <trip id="274" depart="462.88" from="-376666931#3" to="384030401#0" type="passenger"/>
    <trip id="275" depart="464.57" from="376666932#1" to="-376666931#0" type="passenger"/>
    <trip id="276" depart="466.26" from="464445691#0" to="-376666921" type="passenger"/>
    <trip id="277" depart="467.95" from="-778973690" to="-224260190#2" type="passenger"/>
    <trip id="278" depart="469.63" from="464445692#0" to="376666930#0" type="passenger"/>
    <trip id="279" depart="471.32" from="376666930#2" to="767111811#1" type="passenger"/>
    <trip id="280" depart="473.01" from="464445692#1" to="585341906#0" type="passenger"/>
    <trip id="281" depart="474.70" from="331990404#1" to="376666930#1" type="passenger"/>
    <trip id="282" depart="476.39" from="778973690" to="-778973690" type="passenger"/>
    <trip id="283" depart="478.08" from="913268036" to="913268036" type="passenger"/>
    <trip id="284" depart="479.77" from="-376666916#2" to="585341907#2" type="passenger"/>
    <trip id="285" depart="481.46" from="224260190#1" to="376666931#4" type="passenger"/>
    <trip id="286" depart="483.15" from="-464445691#0" to="585341906#0" type="passenger"/>
    <trip id="287" depart="484.84" from="384030401#1" to="767111811#1" type="passenger"/>
    <trip id="288" depart="486.53" from="-464445691#3" to="376666932#1" type="passenger"/>
    <trip id="289" depart="488.22" from="376666930#2" to="376666916#1" type="passenger"/>
    <trip id="290" depart="489.91" from="331990404#0" to="-1339655668" type="passenger"/>
    <trip id="291" depart="491.60" from="1206220504#1" to="224260190#0" type="passenger"/>
    <trip id="292" depart="493.29" from="-376666931#4" to="376666921" type="passenger"/>
    <trip id="293" depart="494.97" from="376666921" to="464445691#1" type="passenger"/>
    <trip id="294" depart="496.66" from="224260190#0" to="-376666916#0" type="passenger"/>
    <trip id="295" depart="498.35" from="376666930#2" to="224260190#1" type="passenger"/>
    <trip id="296" depart="500.04" from="376666931#4" to="-224260190#1" type="passenger"/>
    <trip id="297" depart="501.73" from="-778973690" to="376666916#1" type="passenger"/>
    <trip id="298" depart="503.42" from="-376666932#1" to="376666930#0" type="passenger"/>
    <trip id="299" depart="505.11" from="384030401#0" to="1206220503#1" type="passenger"/>
    <trip id="300" depart="506.80" from="-376666930#0" to="619147740" type="passenger"/>
    <trip id="301" depart="508.49" from="-464445691#3" to="464445692#1" type="passenger"/>
    <trip id="302" depart="510.18" from="585352852#0-AddedOffRampEdge" to="585341907#0" type="passenger"/>
    <trip id="303" depart="511.87" from="-631259844" to="1206220503#1" type="passenger"/>
    <trip id="304" depart="513.56" from="-631259844" to="384030401#1" type="passenger"/>
    <trip id="305" depart="515.25" from="1206220504#1" to="-376666921" type="passenger"/>
    <trip id="306" depart="516.94" from="913268036" to="585341907#0" type="passenger"/>
    <trip id="307" depart="518.63" from="224260190#1" to="384030401#0" type="passenger"/>
    <trip id="308" depart="520.31" from="384030401#1" to="585341906#2" type="passenger"/>
    <trip id="309" depart="522.00" from="-376666930#2" to="384030401#2" type="passenger"/>
    <trip id="310" depart="523.69" from="376666931#3" to="376666916#1" type="passenger"/>
    <trip id="311" depart="525.38" from="1206220503#1" to="-1339655669" type="passenger"/>
    <trip id="312" depart="527.07" from="376666931#4" to="-224260190#2" type="passenger"/>
    <trip id="313" depart="528.76" from="-631259843" to="-384030401#0" type="passenger"/>
    <trip id="314" depart="530.45" from="-384030401#2" to="767111811#2" type="passenger"/>
    <trip id="315" depart="532.14" from="376666930#2" to="219696191#1" type="passenger"/>
    <trip id="316" depart="533.83" from="384030401#1" to="384030401#0" type="passenger"/>
    <trip id="317" depart="535.52" from="-631259843" to="767111811#2" type="passenger"/>
    <trip id="318" depart="537.21" from="-516163750#1" to="-224260190#2" type="passenger"/>
    <trip id="319" depart="538.90" from="-224260190#2" to="-384030401#0" type="passenger"/>
    <trip id="320" depart="540.59" from="-376666916#2" to="-778973690" type="passenger"/>
    <trip id="321" depart="542.28" from="-376666921" to="376666930#2" type="passenger"/>
    <trip id="322" depart="543.97" from="585352852#0" to="384030401#2" type="passenger"/>