<?xml version="1.0" encoding="UTF-8"?>

<!-- generated on 2026-04-17 02:57:25.396699 by Eclipse SUMO randomTrips.py v1.26.0
<configuration>
    <net-file value="/Users/junlee/Desktop/2026-1/js/result/tradeoff_pet_top12_seed12_60min_20260417_025716/sumo_nets/cw_23040/network.net.xml"/>
    <output-trip-file value="/Users/junlee/Desktop/2026-1/js/result/tradeoff_pet_top12_seed12_60min_20260417_025716/sumo_nets/cw_23040/routes_seed51.trips.xml"/>
    <route-file value="/Users/junlee/Desktop/2026-1/js/result/tradeoff_pet_top12_seed12_60min_20260417_025716/sumo_nets/cw_23040/routes_seed51.rou.xml"/>
    <vehicle-class value="passenger"/>
    <seed value="51"/>
    <period value="1.833281405307403"/>
</configuration>
-->

<routes xmlns:xsi="http://www.w3.org/2001/XMLSchema-instance" xsi:noNamespaceSchemaLocation="http://sumo.dlr.de/xsd/routes_file.xsd">
    <vType id="passenger" vClass="passenger"/>
    <trip id="0" depart="0.00" from="-376666931#3" to="585341906#2" type="passenger"/>
    <trip id="1" depart="1.83" from="-464445691#0" to="37402371" type="passenger"/>
    <trip id="2" depart="3.67" from="615671505#2" to="1206220508" type="passenger"/>
    <trip id="3" depart="5.50" from="331990404#0" to="376666930#2" type="passenger"/>
    <trip id="4" depart="7.33" from="913268036" to="1206223946#1" type="passenger"/>
    <trip id="5" depart="9.17" from="-224260190#1" to="-516163750#0" type="passenger"/>
    <trip id="6" depart="11.00" from="218962181" to="585341906#0" type="passenger"/>
    <trip id="7" depart="12.83" from="-376666931#4" to="376666930#1" type="passenger"/>
    <trip id="8" depart="14.67" from="-376666932#1" to="464445691#3" type="passenger"/>
    <trip id="9" depart="16.50" from="1339655669" to="631259843" type="passenger"/>
    <trip id="10" depart="18.33" from="778973690" to="585341906#2" type="passenger"/>
    <trip id="11" depart="20.17" from="516163750#0" to="585341906#2" type="passenger"/>
    <trip id="12" depart="22.00" from="778973690" to="224260190#0" type="passenger"/>
    <trip id="13" depart="23.83" from="-224260190#0" to="219696191#0" type="passenger"/>
    <trip id="14" depart="25.67" from="1206220504#1" to="-376666932#1" type="passenger"/>
    <trip id="15" depart="27.50" from="585352852#1" to="37402371" type="passenger"/>
    <trip id="16" depart="29.33" from="1339655668" to="-376666930#2" type="passenger"/>
    <trip id="17" depart="31.17" from="778973690" to="585341907#0" type="passenger"/>
    <trip id="18" depart="33.00" from="516163750#1" to="585341907#0" type="passenger"/>
    <trip id="19" depart="34.83" from="-376666916#2" to="376666916#2" type="passenger"/>
    <trip id="20" depart="36.67" from="376666932#0" to="376666916#2" type="passenger"/>
    <trip id="21" depart="38.50" from="-384030401#1" to="778973690" type="passenger"/>
    <trip id="22" depart="40.33" from="-224260190#3" to="224260190#0" type="passenger"/>
    <trip id="23" depart="42.17" from="224260190#2" to="376666921" type="passenger"/>
    <trip id="24" depart="44.00" from="778973690" to="37402371" type="passenger"/>
    <trip id="25" depart="45.83" from="218962181" to="-376666931#1" type="passenger"/>
    <trip id="26" depart="47.67" from="464445691#1" to="-376666930#1" type="passenger"/>
    <trip id="27" depart="49.50" from="1339655669" to="767111811#1" type="passenger"/>
    <trip id="28" depart="51.33" from="-1339655668" to="376666931#3" type="passenger"/>
    <trip id="29" depart="53.17" from="376666931#0" to="384030401#2" type="passenger"/>
    <trip id="30" depart="55.00" from="376666931#3" to="376666931#3" type="passenger"/>
    <trip id="31" depart="56.83" from="376666932#0" to="224260190#2" type="passenger"/>
    <trip id="32" depart="58.67" from="-224260190#0" to="464445692#1" type="passenger"/>
    <trip id="33" depart="60.50" from="-516163750#1" to="464445692#1" type="passenger"/>
    <trip id="34" depart="62.33" from="778973690" to="464445692#1" type="passenger"/>
    <trip id="35" depart="64.16" from="1206220503#0" to="-778973690" type="passenger"/>
    <trip id="36" depart="66.00" from="376666931#1" to="37402371" type="passenger"/>
    <trip id="37" depart="67.83" from="1206220504#0" to="464445691#1" type="passenger"/>
    <trip id="38" depart="69.66" from="-1339655668" to="-376666931#0" type="passenger"/>
    <trip id="39" depart="71.50" from="1206220504#0" to="-224260190#2" type="passenger"/>
    <trip id="40" depart="73.33" from="384030401#1" to="-778973690" type="passenger"/>
    <trip id="41" depart="75.16" from="-376666916#1" to="224260190#2" type="passenger"/>
    <trip id="42" depart="77.00" from="224260190#2" to="464445692#1" type="passenger"/>
    <trip id="43" depart="78.83" from="-516163750#0" to="464445691#0" type="passenger"/>
    <trip id="44" depart="80.66" from="-1339655668" to="376666931#3" type="passenger"/>
    <trip id="45" depart="82.50" from="1206220507#0" to="464445691#0" type="passenger"/>
    <trip id="46" depart="84.33" from="464445691#1" to="-376666930#1" type="passenger"/>
    <trip id="47" depart="86.16" from="1206220504#0" to="-384030401#0" type="passenger"/>
    <trip id="48" depart="88.00" from="778973690" to="-376666930#2" type="passenger"/>
    <trip id="49" depart="89.83" from="224260190#0" to="376666916#0" type="passenger"/>
    <trip id="50" depart="91.66" from="778973690" to="585341906#2" type="passenger"/>
    <trip id="51" depart="93.50" from="-376666916#2" to="-376666916#0" type="passenger"/>
    <trip id="52" depart="95.33" from="464445692#0" to="-376666932#0" type="passenger"/>
    <trip id="53" depart="97.16" from="-384030401#2" to="-376666931#3" type="passenger"/>
    <trip id="54" depart="99.00" from="464445692#1" to="-376666930#0" type="passenger"/>
    <trip id="55" depart="100.83" from="218962181" to="585341906#0" type="passenger"/>
    <trip id="56" depart="102.66" from="224260190#1" to="-1339655668" type="passenger"/>
    <trip id="57" depart="104.50" from="-224260190#0" to="585341907#0" type="passenger"/>
    <trip id="58" depart="106.33" from="-631259844" to="-376666921" type="passenger"/>
    <trip id="59" depart="108.16" from="224260190#1" to="516163750#0" type="passenger"/>
    <trip id="60" depart="110.00" from="-631259844" to="-376666931#0" type="passenger"/>
    <trip id="61" depart="111.83" from="-376666932#1" to="224260190#1" type="passenger"/>
    <trip id="62" depart="113.66" from="464445691#0" to="-376666921" type="passenger"/>
    <trip id="63" depart="115.50" from="384030401#1" to="376666931#4" type="passenger"/>
    <trip id="64" depart="117.33" from="331990404#1" to="1206220507#0" type="passenger"/>
    <trip id="65" depart="119.16" from="1206220504#0" to="376666931#4" type="passenger"/>
    <trip id="66" depart="121.00" from="-376666916#0" to="-376666931#3" type="passenger"/>
    <trip id="67" depart="122.83" from="-224260190#0" to="224260190#2" type="passenger"/>
    <trip id="68" depart="124.66" from="218962181" to="-376666930#0" type="passenger"/>
    <trip id="69" depart="126.50" from="219696191#0" to="619147740" type="passenger"/>
    <trip id="70" depart="128.33" from="516163750#1" to="376666931#4" type="passenger"/>
    <trip id="71" depart="130.16" from="-224260190#1" to="1206223946#1" type="passenger"/>
    <trip id="72" depart="132.00" from="224260190#0" to="-376666931#3" type="passenger"/>
    <trip id="73" depart="133.83" from="384030401#0" to="464445691#3" type="passenger"/>
    <trip id="74" depart="135.66" from="384030401#0" to="-376666930#2" type="passenger"/>
    <trip id="75" depart="137.50" from="-376666931#4" to="384030401#2" type="passenger"/>
    <trip id="76" depart="139.33" from="384030401#1" to="464445692#1" type="passenger"/>
    <trip id="77" depart="141.16" from="376666930#1" to="224260190#0" type="passenger"/>
    <trip id="78" depart="143.00" from="-376666931#3" to="-224260190#1" type="passenger"/>
    <trip id="79" depart="144.83" from="464445691#1" to="585341907#0" type="passenger"/>
    <trip id="80" depart="146.66" from="913268036" to="376666931#4" type="passenger"/>
    <trip id="81" depart="148.50" from="-384030401#0" to="219696191#0" type="passenger"/>
    <trip id="82" depart="150.33" from="1206220503#1" to="376666931#3" type="passenger"/>
    <trip id="83" depart="152.16" from="-224260190#1" to="-384030401#1" type="passenger"/>
    <trip id="84" depart="154.00" from="-384030401#2" to="-376666931#4" type="passenger"/>
    <trip id="85" depart="155.83" from="-376666921" to="224260190#1" type="passenger"/>
    <trip id="86" depart="157.66" from="516163750#1" to="585341907#2" type="passenger"/>
    <trip id="87" depart="159.50" from="-516163750#0" to="1339655668" type="passenger"/>
    <trip id="88" depart="161.33" from="-384030401#2" to="464445692#0" type="passenger"/>
    <trip id="89" depart="163.16" from="1339655669" to="37402371" type="passenger"/>
    <trip id="90" depart="165.00" from="-516163750#0" to="384030401#2" type="passenger"/>
    <trip id="91" depart="166.83" from="-516163750#0" to="-1339655668" type="passenger"/>
    <trip id="92" depart="168.66" from="-516163750#1" to="384030401#2" type="passenger"/>
    <trip id="93" depart="170.50" from="-224260190#0" to="37402371" type="passenger"/>
    <trip id="94" depart="172.33" from="-376666931#4" to="-384030401#0" type="passenger"/>
    <trip id="95" depart="174.16" from="-384030401#2" to="-384030401#1" type="passenger"/>
    <trip id="96" depart="176.00" from="331990404#1" to="376666931#4" type="passenger"/>
    <trip id="97" depart="177.83" from="-631259844" to="631259843" type="passenger"/>
    <trip id="98" depart="179.66" from="-376666916#0" to="-376666930#1" type="passenger"/>
    <trip id="99" depart="181.49" from="376666932#0" to="778973690" type="passenger"/>
    <trip id="100" depart="183.33" from="-384030401#2" to="631259844" type="passenger"/>
    <trip id="101" depart="185.16" from="913268036" to="219696191#1" type="passenger"/>
    <trip id="102" depart="186.99" from="384030401#0" to="1206220503#0" type="passenger"/>
    <trip id="103" depart="188.83" from="-778973690" to="333554718" type="passenger"/>
    <trip id="104" depart="190.66" from="-224260190#0" to="464445691#1" type="passenger"/>
    <trip id="105" depart="192.49" from="384030401#1" to="464445692#0" type="passenger"/>
    <trip id="106" depart="194.33" from="-376666930#1" to="-384030401#0" type="passenger"/>
    <trip id="107" depart="196.16" from="615671505#0" to="615671505#2" type="passenger"/>
    <trip id="108" depart="197.99" from="-464445691#1" to="-464445691#0" type="passenger"/>
    <trip id="109" depart="199.83" from="-376666931#4" to="-376666931#2" type="passenger"/>
    <trip id="110" depart="201.66" from="1206220504#0" to="219696191#0" type="passenger"/>
    <trip id="111" depart="203.49" from="-376666931#3" to="37402371" type="passenger"/>
    <trip id="112" depart="205.33" from="464445691#0" to="-778973690" type="passenger"/>
    <trip id="113" depart="207.16" from="-224260190#1" to="-376666930#0" type="passenger"/>
    <trip id="114" depart="208.99" from="1339655669" to="767111811#2" type="passenger"/>
    <trip id="115" depart="210.83" from="376666916#0" to="-376666931#3" type="passenger"/>
    <trip id="116" depart="212.66" from="464445692#1" to="-1339655669" type="passenger"/>
    <trip id="117" depart="214.49" from="331990404#1" to="585341906#0" type="passenger"/>
    <trip id="118" depart="216.33" from="-224260190#3" to="224260190#2" type="passenger"/>
    <trip id="119" depart="218.16" from="778973690" to="-516163750#0" type="passenger"/>
    <trip id="120" depart="219.99" from="778973690" to="778973690" type="passenger"/>
    <trip id="121" depart="221.83" from="1339655669" to="224260190#0" type="passenger"/>
    <trip id="122" depart="223.66" from="376666932#1" to="224260190#3" type="passenger"/>
    <trip id="123" depart="225.49" from="-224260190#1" to="376666916#0" type="passenger"/>
    <trip id="124" depart="227.33" from="615671505#0" to="516163750#0" type="passenger"/>
    <trip id="125" depart="229.16" from="376666931#0" to="631259843" type="passenger"/>
    <trip id="126" depart="230.99" from="-631259843" to="585341907#2" type="passenger"/>
    <trip id="127" depart="232.83" from="376666930#2" to="-1339655669" type="passenger"/>
    <trip id="128" depart="234.66" from="376666932#0" to="-376666921" type="passenger"/>
    <trip id="129" depart="236.49" from="384030401#1" to="-224260190#1" type="passenger"/>
    <trip id="130" depart="238.33" from="-631259843" to="-778973690" type="passenger"/>
    <trip id="131" depart="240.16" from="-376666916#0" to="1206223946#1" type="passenger"/>
    <trip id="132" depart="241.99" from="-516163750#1" to="-376666921" type="passenger"/>
    <trip id="133" depart="243.83" from="-376666916#2" to="464445691#0" type="passenger"/>
    <trip id="134" depart="245.66" from="-224260190#3" to="585341906#0" type="passenger"/>
    <trip id="135" depart="247.49" from="-516163750#0" to="224260190#1" type="passenger"/>
    <trip id="136" depart="249.33" from="1206220503#1" to="224260190#1" type="passenger"/>
    <trip id="137" depart="251.16" from="516163750#0" to="-384030401#1" type="passenger"/>
    <trip id="138" depart="252.99" from="-376666921" to="376666930#0" type="passenger"/>
    <trip id="139" depart="254.83" from="516163750#1" to="-224260190#0" type="passenger"/>
    <trip id="140" depart="256.66" from="-376666930#0" to="376666916#2" type="passenger"/>
    <trip id="141" depart="258.49" from="1206220503#1" to="224260190#3" type="passenger"/>
    <trip id="142" depart="260.33" from="1206220504#0" to="-376666930#2" type="passenger"/>
    <trip id="143" depart="262.16" from="384030401#1" to="619147740" type="passenger"/>
    <trip id="144" depart="263.99" from="-376666930#0" to="376666921" type="passenger"/>
    <trip id="145" depart="265.83" from="333554718" to="619147740" type="passenger"/>
    <trip id="146" depart="267.66" from="1206220504#1" to="-376666931#0" type="passenger"/>
    <trip id="147" depart="269.49" from="331990404#3" to="-224260190#2" type="passenger"/>
    <trip id="148" depart="271.33" from="-516163750#0" to="767111811#2" type="passenger"/>
    <trip id="149" depart="273.16" from="384030401#1" to="464445691#0" type="passenger"/>
    <trip id="150" depart="274.99" from="615671505#0" to="-376666931#0" type="passenger"/>
    <trip id="151" depart="276.83" from="-224260190#0" to="-376666931#3" type="passenger"/>
    <trip id="152" depart="278.66" from="376666931#3" to="384030401#1" type="passenger"/>
    <trip id="153" depart="280.49" from="1206220503#0" to="585341906#2" type="passenger"/>
    <trip id="154" depart="282.33" from="516163750#1" to="585341907#0" type="passenger"/>
    <trip id="155" depart="284.16" from="778973690" to="376666916#0" type="passenger"/>
    <trip id="156" depart="285.99" from="376666930#2" to="37402371" type="passenger"/>
    <trip id="157" depart="287.83" from="-516163750#1" to="-1339655669" type="passenger"/>
    <trip id="158" depart="289.66" from="-631259843" to="1339655668" type="passenger"/>
    <trip id="159" depart="291.49" from="-376666916#0" to="-516163750#0" type="passenger"/>
    <trip id="160" depart="293.33" from="585352852#0-AddedOffRampEdge" to="-376666916#0" type="passenger"/>
    <trip id="161" depart="295.16" from="376666916#0" to="1339655668" type="passenger"/>
    <trip id="162" depart="296.99" from="376666931#3" to="376666921" type="passenger"/>
    <trip id="163" depart="298.82" from="464445691#0" to="219696191#0" type="passenger"/>
    <trip id="164" depart="300.66" from="778973690" to="219696191#0" type="passenger"/>
    <trip id="165" depart="302.49" from="-384030401#0" to="224260190#3" type="passenger"/>
    <trip id="166" depart="304.32" from="376666930#1" to="219696191#1" type="passenger"/>
    <trip id="167" depart="306.16" from="-376666921" to="224260190#3" type="passenger"/>
    <trip id="168" depart="307.99" from="-224260190#3" to="-224260190#2" type="passenger"/>
    <trip id="169" depart="309.82" from="376666931#1" to="-516163750#0" type="passenger"/>
    <trip id="170" depart="311.66" from="615671505#0" to="619147740" type="passenger"/>
    <trip id="171" depart="313.49" from="384030401#0" to="-376666930#2" type="passenger"/>
    <trip id="172" depart="315.32" from="-384030401#2" to="224260190#3" type="passenger"/>
    <trip id="173" depart="317.16" from="331990404#3" to="224260190#0" type="passenger"/>
    <trip id="174" depart="318.99" from="-1339655668" to="-376666931#4" type="passenger"/>
    <trip id="175" depart="320.82" from="224260190#0" to="631259844" type="passenger"/>
    <trip id="176" depart="322.66" from="-464445691#0" to="1206223946#1" type="passenger"/>
    <trip id="177" depart="324.49" from="376666930#1" to="-516163750#0" type="passenger"/>
    <trip id="178" depart="326.32" from="1206220504#1" to="464445692#0" type="passenger"/>
    <trip id="179" depart="328.16" from="464445692#0" to="464445691#0" type="passenger"/>
    <trip id="180" depart="329.99" from="464445692#0" to="-1339655669" type="passenger"/>
    <trip id="181" depart="331.82" from="-376666916#1" to="376666921" type="passenger"/>
    <trip id="182" depart="333.66" from="376666932#1" to="-224260190#2" type="passenger"/>
    <trip id="183" depart="335.49" from="1206220504#0" to="376666916#0" type="passenger"/>
    <trip id="184" depart="337.32" from="331990404#0" to="376666916#1" type="passenger"/>
    <trip id="185" depart="339.16" from="331990404#3" to="-376666931#4" type="passenger"/>
    <trip id="186" depart="340.99" from="224260190#2" to="-384030401#0" type="passenger"/>
    <trip id="187" depart="342.82" from="1339655669" to="-516163750#1" type="passenger"/>
    <trip id="188" depart="344.66" from="376666931#1" to="464445691#3" type="passenger"/>
    <trip id="189" depart="346.49" from="-516163750#0" to="333554718" type="passenger"/>
    <trip id="190" depart="348.32" from="384030401#1" to="-376666931#3" type="passenger"/>
    <trip id="191" depart="350.16" from="1206220504#0" to="376666916#0" type="passenger"/>
    <trip id="192" depart="351.99" from="376666931#1" to="224260190#2" type="passenger"/>
    <trip id="193" depart="353.82" from="464445691#1" to="-376666932#0" type="passenger"/>
    <trip id="194" depart="355.66" from="585352852#0" to="585341907#0" type="passenger"/>
    <trip id="195" depart="357.49" from="376666931#1" to="376666916#0" type="passenger"/>
    <trip id="196" depart="359.32" from="-224260190#0" to="1206220503#1" type="passenger"/>
    <trip id="197" depart="361.16" from="464445691#0" to="464445692#0" type="passenger"/>
    <trip id="198" depart="362.99" from="-1339655668" to="219696191#1" type="passenger"/>
    <trip id="199" depart="364.82" from="376666931#2" to="376666916#2" type="passenger"/>
    <trip id="200" depart="366.66" from="615671505#0" to="-224260190#2" type="passenger"/>
    <trip id="201" depart="368.49" from="331990404#3" to="-376666931#0" type="passenger"/>
    <trip id="202" depart="370.32" from="-464445691#0" to="219696191#1" type="passenger"/>
    <trip id="203" depart="372.16" from="-376666930#0" to="-1339655668" type="passenger"/>
    <trip id="204" depart="373.99" from="-224260190#3" to="-376666916#0" type="passenger"/>
    <trip id="205" depart="375.82" from="-464445691#3" to="376666930#0" type="passenger"/>
    <trip id="206" depart="377.66" from="-376666932#1" to="224260190#3" type="passenger"/>
    <trip id="207" depart="379.49" from="-778973690" to="219696191#0" type="passenger"/>
    <trip id="208" depart="381.32" from="384030401#1" to="-376666930#0" type="passenger"/>
    <trip id="209" depart="383.16" from="-224260190#1" to="1339655668" type="passenger"/>
    <trip id="210" depart="384.99" from="-384030401#0" to="219696191#0" type="passenger"/>
    <trip id="211" depart="386.82" from="-384030401#1" to="37402371" type="passenger"/>
    <trip id="212" depart="388.66" from="1206220507#0" to="-384030401#1" type="passenger"/>
    <trip id="213" depart="390.49" from="376666932#1" to="767111811#1" type="passenger"/>
    <trip id="214" depart="392.32" from="585352852#1" to="464445691#0" type="passenger"/>
    <trip id="215" depart="394.16" from="218962181" to="-224260190#1" type="passenger"/>
    <trip id="216" depart="395.99" from="331990404#3" to="-384030401#0" type="passenger"/>
    <trip id="217" depart="397.82" from="-376666932#1" to="-376666932#0" type="passenger"/>
    <trip id="218" depart="399.66" from="1206220504#0" to="376666916#0" type="passenger"/>
    <trip id="219" depart="401.49" from="464445692#1" to="-376666931#2" type="passenger"/>
    <trip id="220" depart="403.32" from="-224260190#1" to="376666930#2" type="passenger"/>
    <trip id="221" depart="405.16" from="219696191#0" to="767111811#1" type="passenger"/>
    <trip id="222" depart="406.99" from="585352852#1" to="224260190#1" type="passenger"/>
    <trip id="223" depart="408.82" from="376666930#2" to="464445691#0" type="passenger"/>
    <trip id="224" depart="410.66" from="464445692#1" to="-376666916#0" type="passenger"/>
    <trip id="225" depart="412.49" from="1206220503#1" to="-1339655669" type="passenger"/>
    <trip id="226" depart="414.32" from="-224260190#2" to="219696191#1" type="passenger"/>
    <trip id="227" depart="416.15" from="-376666930#2" to="-224260190#0" type="passenger"/>
    <trip id="228" depart="417.99" from="778973690" to="-376666930#1" type="passenger"/>
    <trip id="229" depart="419.82" from="464445692#1" to="224260190#1" type="passenger"/>
    <trip id="230" depart="421.65" from="376666930#0" to="-376666931#1" type="passenger"/>
    <trip id="231" depart="423.49" from="651817398#0" to="651817398#1" type="passenger"/>
    <trip id="232" depart="425.32" from="464445691#0" to="219696191#0" type="passenger"/>
    <trip id="233" depart="427.15" from="376666916#0" to="-224260190#1" type="passenger"/>
    <trip id="234" depart="428.99" from="376666921" to="585341907#2" type="passenger"/>
    <trip id="235" depart="430.82" from="-224260190#3" to="-376666931#0" type="passenger"/>
    <trip id="236" depart="432.65" from="464445692#1" to="-1339655669" type="passenger"/>
    <trip id="237" depart="434.49" from="913268036" to="376666931#4" type="passenger"/>
    <trip id="238" depart="436.32" from="-516163750#0" to="219696191#0" type="passenger"/>
    <trip id="239" depart="438.15" from="-376666921" to="224260190#1" type="passenger"/>
    <trip id="240" depart="439.99" from="1206220504#1" to="585341906#0" type="passenger"/>
    <trip id="241" depart="441.82" from="376666931#3" to="767111811#1" type="passenger"/>
    <trip id="242" depart="443.65" from="376666930#2" to="-376666930#2" type="passenger"/>
    <trip id="243" depart="445.49" from="585352852#0" to="-376666931#1" type="passenger"/>
    <trip id="244" depart="447.32" from="-778973690" to="516163750#0" type="passenger"/>
    <trip id="245" depart="449.15" from="-376666931#3" to="219696191#0" type="passenger"/>
    <trip id="246" depart="450.99" from="1206220504#1" to="585341907#0" type="passenger"/>
    <trip id="247" depart="452.82" from="1206220507#0" to="1206223946#1" type="passenger"/>
    <trip id="248" depart="454.65" from="-384030401#2" to="376666916#0" type="passenger"/>
    <trip id="249" depart="456.49" from="464445691#0" to="-516163750#1" type="passenger"/>
    <trip id="250" depart="458.32" from="-376666931#4" to="-376666921" type="passenger"/>
    <trip id="251" depart="460.15" from="-516163750#1" to="224260190#0" type="passenger"/>
    <trip id="252" depart="461.99" from="376666930#1" to="376666932#1" type="passenger"/>
    <trip id="253" depart="463.82" from="-1339655668" to="-384030401#0" type="passenger"/>
    <trip id="254" depart="465.65" from="-376666930#2" to="376666916#0" type="passenger"/>
    <trip id="255" depart="467.49" from="778973690" to="464445691#3" type="passenger"/>
    <trip id="256" depart="469.32" from="331990404#1" to="516163750#1" type="passenger"/>
    <trip id="257" depart="471.15" from="-376666931#3" to="-376666921" type="passenger"/>
    <trip id="258" depart="472.99" from="1339655669" to="-1339655668" type="passenger"/>
    <trip id="259" depart="474.82" from="585341906#0" to="585341906#0" type="passenger"/>
    <trip id="260" depart="476.65" from="1206223946#1" to="767111811#2" type="passenger"/>
    <trip id="261" depart="478.49" from="1206220503#1" to="-516163750#0" type="passenger"/>
    <trip id="262" depart="480.32" from="-516163750#1" to="778973690" type="passenger"/>
    <trip id="263" depart="482.15" from="516163750#0" to="224260190#0" type="passenger"/>
    <trip id="264" depart="483.99" from="376666916#0" to="-376666930#0" type="passenger"/>
    <trip id="265" depart="485.82" from="-376666931#3" to="-376666921" type="passenger"/>
    <trip id="266" depart="487.65" from="224260190#2" to="1206220503#1" type="passenger"/>
    <trip id="267" depart="489.49" from="331990404#1" to="585341906#2" type="passenger"/>
    <trip id="268" depart="491.32" from="-376666921" to="464445692#0" type="passenger"/>
    <trip id="269" depart="493.15" from="-631259844" to="585341906#2" type="passenger"/>
    <trip id="270" depart="494.99" from="224260190#2" to="376666932#1" type="passenger"/>
    <trip id="271" depart="496.82" from="1339655669" to="224260190#1" type="passenger"/>
    <trip id="272" depart="498.65" from="-1339655668" to="-376666931#2" type="passenger"/>
    <trip id="273" depart="500.49" from="585352852#0-AddedOffRampEdge" to="224260190#3" type="passenger"/>
    <trip id="274" depart="502.32" from="-778973690" to="1206220503#0" type="passenger"/>
    <trip id="275" depart="504.15" from="376666931#1" to="-376666931#1" type="passenger"/>
    <trip id="276" depart="505.99" from="585352852#1" to="-516163750#1" type="passenger"/>
    <trip id="277" depart="507.82" from="464445691#0" to="464445691#3" type="passenger"/>
    <trip id="278" depart="509.65" from="219696191#1" to="767111811#2" type="passenger"/>
    <trip id="279" depart="511.49" from="1206220504#0" to="1339655668" type="passenger"/>
    <trip id="280" depart="513.32" from="585352852#0" to="767111811#2" type="passenger"/>
    <trip id="281" depart="515.15" from="1206220503#1" to="-224260190#1" type="passenger"/>
    <trip id="282" depart="516.99" from="218962181" to="516163750#0" type="passenger"/>
    <trip id="283" depart="518.82" from="-376666932#1" to="376666930#0" type="passenger"/>
    <trip id="284" depart="520.65" from="-376666931#4" to="778973690" type="passenger"/>
    <trip id="285" depart="522.49" from="376666931#4" to="-224260190#1" type="passenger"/>
    <trip id="286" depart="524.32" from="-224260190#0" to="-376666932#1" type="passenger"/>
    <trip id="287" depart="526.15" from="376666932#1" to="376666921" type="passenger"/>
    <trip id="288" depart="527.99" from="376666932#0" to="376666916#0" type="passenger"/>
    <trip id="289" depart="529.82" from="376666932#0" to="1206220503#1" type="passenger"/>
    <trip id="290" depart="531.65" from="376666932#0" to="1206220503#0" type="passenger"/>
    <trip id="291" depart="533.48" from="224260190#2" to="224260190#1" type="passenger"/>
    <trip id="292" depart="535.32" from="1206220507#0" to="-376666921" type="passenger"/>
    <trip id="293" depart="537.15" from="-376666921" to="376666931#3" type="passenger"/>
    <trip id="294" depart="538.98" from="1339655669" to="384030401#1" type="passenger"/>
    <trip id="295" depart="540.82" from="-384030401#2" to="-516163750#1" type="passenger"/>
    <trip id="296" depart="542.65" from="-376666916#0" to="-384030401#0" type="passenger"/>
    <trip id="297" depart="544.48" from="376666931#2" to="464445691#3" type="passenger"/>
    <trip id="298" depart="546.32" from="-516163750#1" to="219696191#0" type="passenger"/>
    <trip id="299" depart="548.15" from="1206220504#1" to="-1339655668" type="passenger"/>
    <trip id="300" depart="549.98" from="-376666916#2" to="-376666916#1" type="passenger"/>
    <trip id="301" depart="551.82" from="1206220507#0" to="376666931#4" type="passenger"/>
    <trip id="302" depart="553.65" from="-384030401#0" to="224260190#2" type="passenger"/>
    <trip id="303" depart="555.48" from="224260190#2" to="384030401#2" type="passenger"/>
    <trip id="304" depart="557.32" from="376666931#4" to="1339655668" type="passenger"/>
    <trip id="305" depart="559.15" from="464445692#1" to="376666930#2" type="passenger"/>
    <trip id="306" depart="560.98" from="516163750#1" to="-376666931#0" type="passenger"/>
    <trip id="307" depart="562.82" from="376666932#0" to="-1339655669" type="passenger"/>
    <trip id="308" depart="564.65" from="376666930#2" to="376666931#4" type="passenger"/>
    <trip id="309" depart="566.48" from="516163750#0" to="-778973690" type="passenger"/>
    <trip id="310" depart="568.32" from="-464445691#3" to="-376666931#0" type="passenger"/>
    <trip id="311" depart="570.15" from="224260190#0" to="-376666930#0" type="passenger"/>
    <trip id="312" depart="571.98" from="-376666930#0" to="333554718" type="passenger"/>
    <trip id="313" depart="573.82" from="585352852#0-AddedOffRampEdge" to="-376666931#4" type="passenger"/>
    <trip id="314" depart="575.65" from="-464445691#3" to="-376666931#0" type="passenger"/>
    <trip id="315" depart="577.48" from="376666932#0" to="-376666931#1" type="passenger"/>
    <trip id="316" depart="579.32" from="-376666931#4" to="384030401#2" type="passenger"/>
    <trip id="317" depart="581.15" from="1206220503#0" to="631259843" type="passenger"/>
    <trip id="318" depart="582.98" from="331990404#1" to="585341906#2" type="passenger"/>
    <trip id="319" depart="584.82" from="376666931#4" to="224260190#3" type="passenger"/>
    <trip id="320" depart="586.65" from="331990404#3" to="-376666931#0" type="passenger"/>
    <trip id="321" depart="588.48" from="384030401#1" to="376666921" type="passenger"/>
    <trip id="322" depart="590.32" from="331990404#1" to="-376666931#3" type="passenger"/>