<?xml version="1.0" encoding="UTF-8"?>

<!-- generated on 2026-04-17 02:57:26.395493 by Eclipse SUMO randomTrips.py v1.26.0
<configuration>
    <net-file value="/Users/junlee/Desktop/2026-1/js/result/tradeoff_pet_top12_seed12_60min_20260417_025716/sumo_nets/cw_23040/network.net.xml"/>
    <output-trip-file value="/Users/junlee/Desktop/2026-1/js/result/tradeoff_pet_top12_seed12_60min_20260417_025716/sumo_nets/cw_23040/routes_seed52.trips.xml"/>
    <route-file value="/Users/junlee/Desktop/2026-1/js/result/tradeoff_pet_top12_seed12_60min_20260417_025716/sumo_nets/cw_23040/routes_seed52.rou.xml"/>
    <vehicle-class value="passenger"/>
    <seed value="52"/>
    <period value="1.6180924424771383"/>
</configuration>
-->

<!-- generated on 2026-04-17T02:57:26.356114+09:00 by Eclipse SUMO duarouter 1.26.0
<duarouterConfiguration xmlns:xsi="http://www.w3.org/2001/XMLSchema-instance" xsi:noNamespaceSchemaLocation="http://sumo.dlr.de/xsd/duarouterConfiguration.xsd">

    <input>
        <net-file value="/Users/junlee/Desktop/2026-1/js/result/tradeoff_pet_top12_seed12_60min_20260417_025716/sumo_nets/cw_23040/network.net.xml"/>
        <route-files value="/Users/junlee/Desktop/2026-1/js/result/tradeoff_pet_top12_seed12_60min_20260417_025716/sumo_nets/cw_23040/routes_seed52.trips.xml"/>
    </input>

    <output>
        <output-file value="/Users/junlee/Desktop/2026-1/js/result/tradeoff_pet_top12_seed12_60min_20260417_025716/sumo_nets/cw_23040/routes_seed52.rou.xml"/>
        <alternatives-output value="NUL"/>
    </output>

    <time>
        <begin value="0.0"/>
        <end value="3600.0"/>
    </time>

    <report>
        <no-warnings value="true"/>
        <ignore-errors value="true"/>
        <no-step-log value="true"/>
    </report>

</duarouterConfiguration>
-->

<routes xmlns:xsi="http://www.w3.org/2001/XMLSchema-instance" xsi:noNamespaceSchemaLocation="http://sumo.dlr.de/xsd/routes_file.xsd">
    <vType id="passenger" vClass="passenger"/>
    <vehicle id="0" type="passenger" depart="0.00">
        <route edges="778973690 1339655668 516163750#0 516163750#1 224260190#0 224260190#1 224260190#2 376666930#0 376666930#1 376666930#2 -376666916#0 376666932#1 -376666930#0 -224260190#2"/>
    </vehicle>
    <vehicle id="1" type="passenger" depart="1.62">
        <route edges="376666932#0 376666932#1 -376666930#0 -224260190#2 -224260190#1 -224260190#0 -516163750#1 -516163750#0 -1339655668 -376666931#4 -376666931#3 -376666921 224260190#2"/>
    </vehicle>
    <vehicle id="2" type="passenger" depart="3.24">
        <route edges="615671505#0 331990404#0 331990404#1 331990404#3 1206220504#0 1206220504#1 -516163750#1 -516163750#0 -1339655668 -376666931#4 -376666931#3"/>
    </vehicle>
    <vehicle id="3" type="passenger" depart="4.85">
        <route edges="913268036 1206220504#1 224260190#0 224260190#1 376666921 376666931#3 376666931#4 1339655668"/>
    </vehicle>
    <vehicle id="4" type="passenger" depart="6.47">
        <route edges="-376666931#4 -376666931#3 -376666921 -224260190#1 -224260190#0 1206220503#0 1206220503#1"/>
    </vehicle>
    <vehicle id="5" type="passenger" depart="8.09">
        <route edges="376666921 376666931#3 376666931#4 1339655668 516163750#0 516163750#1 384030401#0 384030401#1 778973690 -376666931#4 -376666931#3 -376666921 -224260190#1"/>
    </vehicle>
    <vehicle id="6" type="passenger" depart="9.71">
        <route edges="1206220503#0 1206220503#1 464445691#0 464445691#1 464445692#0 464445692#1 -384030401#0 -516163750#1 -516163750#0 -1339655668"/>
    </vehicle>
    <vehicle id="7" type="passenger" depart="11.33">
        <route edges="-376666916#1 -376666930#2 -376666930#1 -376666930#0 -224260190#2 -224260190#1 -224260190#0 -516163750#1 -516163750#0 -1339655668 -376666931#4 -376666931#3"/>
    </vehicle>
    <vehicle id="8" type="passenger" depart="12.94">
        <route edges="464445691#0 464445691#1 464445692#0 464445692#1 384030401#1 778973690 1339655668"/>
    </vehicle>
    <vehicle id="9" type="passenger" depart="14.56">
        <route edges="585352852#0 585352852#0-AddedOffRampEdge 585352852#1 218962181 333554718"/>
    </vehicle>
    <vehicle id="10" type="passenger" depart="16.18">
        <route edges="224260190#2 376666930#0 376666930#1 376666930#2 -376666916#0 376666932#1 -376666930#0 -224260190#2 -224260190#1 -224260190#0 -516163750#1 -516163750#0 -1339655668 -376666931#4"/>
    </vehicle>
    <vehicle id="11" type="passenger" depart="17.80">
        <route edges="-376666921 224260190#2 376666930#0 -376666932#1 -376666932#0"/>
    </vehicle>
    <vehicle id="12" type="passenger" depart="19.42">
        <route edges="376666931#2 376666931#3 376666931#4 1339655668 516163750#0 516163750#1 1206220503#0 1206220503#1 333554718 37402371 585341906#0"/>
    </vehicle>
    <vehicle id="13" type="passenger" depart="21.04">
        <route edges="-224260190#1 -224260190#0 -516163750#1 -516163750#0 -1339655668"/>
    </vehicle>
    <vehicle id="14" type="passenger" depart="22.65">
        <route edges="1339655668 516163750#0 516163750#1 384030401#0 384030401#1 778973690 -376666931#4"/>
    </vehicle>
    <vehicle id="15" type="passenger" depart="24.27">
        <route edges="-376666930#1 -376666930#0 -224260190#2 -224260190#1 -224260190#0 -516163750#1 -516163750#0 -1339655668 -376666931#4"/>
    </vehicle>
    <vehicle id="16" type="passenger" depart="25.89">
        <route edges="-376666930#2 -376666930#1 -376666930#0 -224260190#2 376666921"/>
    </vehicle>
    <vehicle id="17" type="passenger" depart="27.51">
        <route edges="-631259844 -464445691#1 -464445691#0 333554718 37402371"/>
    </vehicle>
    <vehicle id="18" type="passenger" depart="29.13">
        <route edges="1206220507#0 333554718 37402371"/>
    </vehicle>
    <vehicle id="19" type="passenger" depart="30.74">
        <route edges="376666932#1 -376666930#0 -224260190#2 -224260190#1 -224260190#0 1206220503#0 1206220503#1 464445691#0 464445691#1 464445692#0 464445692#1"/>
    </vehicle>
    <vehicle id="20" type="passenger" depart="32.36">
        <route edges="585341906#2"/>
    </vehicle>
    <vehicle id="21" type="passenger" depart="33.98">
        <route edges="376666931#1 376666931#2 376666931#3 376666931#4 1339655668 516163750#0 516163750#1 1206220503#0 1206220503#1 333554718 37402371 585341907#0 585341907#2"/>
    </vehicle>
    <vehicle id="22" type="passenger" depart="35.60">
        <route edges="384030401#0 384030401#1 778973690 1339655668 516163750#0 516163750#1 1206220503#0 1206220503#1 464445691#0 464445691#1 464445692#0 631259843"/>
    </vehicle>
    <vehicle id="23" type="passenger" depart="37.22">
        <route edges="224260190#2 376666930#0 376666930#1 376666930#2 -376666916#0 376666932#1 -376666930#0 -224260190#2 376666921 376666931#3 376666931#4"/>
    </vehicle>
    <vehicle id="24" type="passenger" depart="38.83">
        <route edges="-376666916#1 -376666930#2 -376666930#1 -376666930#0 -224260190#2 376666921 376666931#3"/>
    </vehicle>
    <vehicle id="25" type="passenger" depart="40.45">
        <route edges="585352852#1 1206220504#0 1206220504#1"/>
    </vehicle>
    <vehicle id="26" type="passenger" depart="42.07">
        <route edges="-376666916#1 -376666930#2 -376666930#1 -376666930#0 -224260190#2 -224260190#1"/>
    </vehicle>
    <vehicle id="27" type="passenger" depart="43.69">
        <route edges="224260190#0 224260190#1 376666921 -376666931#2"/>
    </vehicle>
    <vehicle id="28" type="passenger" depart="45.31">
        <route edges="376666932#1 -376666930#0 -224260190#2 -224260190#1 -224260190#0 -516163750#1 -516163750#0 -1339655668 -376666931#4 -376666931#3 -376666921 224260190#2 376666930#0"/>
    </vehicle>
    <vehicle id="29" type="passenger" depart="46.92">
        <route edges="-224260190#3 -224260190#2 -224260190#1 -224260190#0 1206220503#0 1206220503#1 333554718 37402371"/>
    </vehicle>
    <vehicle id="30" type="passenger" depart="48.54">
        <route edges="464445692#0 464445692#1 -384030401#0 -516163750#1 -516163750#0 -1339655668 -376666931#4 -376666931#3 -376666931#2"/>
    </vehicle>
    <vehicle id="31" type="passenger" depart="50.16">
        <route edges="-464445691#1 -464445691#0 333554718 37402371 585341907#0"/>
    </vehicle>
    <vehicle id="32" type="passenger" depart="51.78">
        <route edges="-376666916#2 -376666916#1 -376666930#2 -376666930#1 -376666930#0 -224260190#2 -224260190#1 -224260190#0 1206220503#0 1206220503#1 464445691#0 464445691#1 464445692#0 464445692#1"/>
    </vehicle>
    <vehicle id="33" type="passenger" depart="53.40">
        <route edges="-464445691#3 464445692#0 464445692#1 -384030401#0 1206220503#0 1206220503#1 464445691#0 464445691#1 464445691#3"/>
    </vehicle>
    <vehicle id="34" type="passenger" depart="55.02">
        <route edges="585352852#0-AddedOffRampEdge 585352852#1 218962181 333554718 37402371 585341907#0 585341907#2"/>
    </vehicle>
    <vehicle id="35" type="passenger" depart="56.63">
        <route edges="-376666932#1 376666916#0 -376666930#2 -376666930#1 -376666930#0 -224260190#2 -224260190#1 -224260190#0 1206220503#0 1206220503#1 333554718 37402371"/>
    </vehicle>
    <vehicle id="36" type="passenger" depart="58.25">
        <route edges="-631259843 464445692#1 -384030401#0 -516163750#1 -516163750#0 -1339655668 -376666931#4 -376666931#3"/>
    </vehicle>
    <vehicle id="37" type="passenger" depart="59.87">
        <route edges="1206220504#0 1206220504#1 -516163750#1 -516163750#0 -1339655668 -376666931#4 -376666931#3 -376666921"/>
    </vehicle>
    <vehicle id="38" type="passenger" depart="61.49">
        <route edges="-384030401#2 778973690 1339655668 516163750#0 516163750#1 384030401#0"/>
    </vehicle>
    <vehicle id="39" type="passenger" depart="63.11">
        <route edges="464445692#0 464445692#1 -384030401#0 224260190#0 224260190#1 224260190#2 376666930#0 376666930#1 376666930#2 -376666916#0 376666932#1"/>
    </vehicle>
    <vehicle id="40" type="passenger" depart="64.72">
        <route edges="333554718 37402371 585341907#0 585341907#2"/>
    </vehicle>
    <vehicle id="41" type="passenger" depart="66.34">
        <route edges="376666931#2 -376666921 -224260190#1 -224260190#0 -516163750#1"/>
    </vehicle>
    <vehicle id="42" type="passenger" depart="67.96">
        <route edges="1339655668 516163750#0 516163750#1 1206220503#0 1206220503#1 333554718 37402371 585341906#0 585341906#2 1206223946#1 767111811#1 767111811#2"/>
    </vehicle>
    <vehicle id="43" type="passenger" depart="69.58">
        <route edges="-376666916#0 376666932#1 -376666930#0 -224260190#2 -224260190#1 -224260190#0 1206220503#0 1206220503#1 464445691#0"/>
    </vehicle>
    <vehicle id="44" type="passenger" depart="71.20">
        <route edges="585352852#1 1206220504#0 1206220504#1 224260190#0 224260190#1 224260190#2 376666930#0"/>
    </vehicle>
    <vehicle id="45" type="passenger" depart="72.81">
        <route edges="-224260190#3 -224260190#2 -224260190#1 -224260190#0 1206220503#0 1206220503#1 464445691#0 464445691#1 464445692#0 464445692#1"/>
    </vehicle>
    <vehicle id="46" type="passenger" depart="74.43">
        <route edges="376666931#2 376666931#3 376666931#4 1339655668 516163750#0 516163750#1 1206220503#0 1206220503#1 333554718 37402371 585341907#0"/>
    </vehicle>
    <vehicle id="47" type="passenger" depart="76.05">
        <route edges="464445691#1 464445692#0 464445692#1"/>
    </vehicle>
    <vehicle id="48" type="passenger" depart="77.67">
        <route edges="913268036 1206220504#1 -516163750#1 -516163750#0 -1339655668 -376666931#4 -376666931#3 -376666921 -224260190#1 -224260190#0 1206220503#0 1206220503#1 464445691#0 464445691#1 631259844"/>
    </vehicle>
    <vehicle id="49" type="passenger" depart="79.29">
        <route edges="-224260190#1 -224260190#0 -516163750#1 -516163750#0 -1339655668 -376666931#4 -376666931#3 -376666921 224260190#2 376666930#0 376666930#1 376666930#2 376666916#1 376666916#2"/>
    </vehicle>
    <vehicle id="50" type="passenger" depart="80.90">
        <route edges="464445692#0 464445692#1 -384030401#0 -516163750#1 -516163750#0 -1339655668 -1339655669"/>
    </vehicle>
    <vehicle id="51" type="passenger" depart="82.52">
        <route edges="-376666930#1 -376666930#0 -224260190#2 -224260190#1 -224260190#0 384030401#0 384030401#1 384030401#2"/>
    </vehicle>
    <vehicle id="52" type="passenger" depart="84.14">
        <route edges="1206220504#1 -516163750#1 -516163750#0 -1339655668 -376666931#4 -376666931#3 -376666931#2"/>
    </vehicle>
    <vehicle id="53" type="passenger" depart="85.76">
        <route edges="-376666916#1 -376666930#2 -376666930#1 -376666930#0 -224260190#2 376666921 376666931#3 376666931#4 1339655668"/>
    </vehicle>
    <vehicle id="54" type="passenger" depart="87.38">
        <route edges="384030401#1 778973690 -376666931#4 -376666931#3 -376666921"/>
    </vehicle>
    <vehicle id="55" type="passenger" depart="89.00">
        <route edges="218962181 464445691#0 464445691#1 464445692#0 631259843"/>
    </vehicle>
    <vehicle id="56" type="passenger" depart="90.61">
        <route edges="219696191#0 219696191#1 619147740"/>
    </vehicle>
    <vehicle id="57" type="passenger" depart="92.23">
        <route edges="585352852#1 1206220504#0 1206220504#1 224260190#0 224260190#1 376666921 376666931#3 376666931#4 1339655668 516163750#0 516163750#1"/>
    </vehicle>
    <vehicle id="58" type="passenger" depart="93.85">
        <route edges="376666930#1 376666930#2 -376666916#0 376666932#1 -376666930#0 -224260190#2 -224260190#1 -224260190#0 -516163750#1 -516163750#0 -1339655668 -376666931#4 -376666931#3 -376666921 224260190#2 376666930#0 -376666932#1 376666916#0 -376666930#2 -376666930#1"/>
    </vehicle>
    <vehicle id="59" type="passenger" depart="95.47">
        <route edges="224260190#2 376666930#0 376666930#1 376666930#2 -376666916#0 376666932#1 -376666930#0 -224260190#2 -224260190#1 -224260190#0 1206220503#0 1206220503#1 464445691#0 464445691#1 464445692#0"/>
    </vehicle>
    <vehicle id="60" type="passenger" depart="97.09">
        <route edges="-516163750#0 -1339655668 -376666931#4 -376666931#3 -376666921 -224260190#1 -224260190#0 384030401#0 384030401#1 778973690 1339655668 516163750#0"/>
    </vehicle>
    <vehicle id="61" type="passenger" depart="98.70">
        <route edges="376666931#4 1339655668 516163750#0 516163750#1 384030401#0 384030401#1 778973690 -376666931#4"/>
    </vehicle>
    <vehicle id="62" type="passenger" depart="100.32">
        <route edges="1206220503#0 1206220503#1 464445691#0 464445691#1 464445692#0 464445692#1 384030401#1 778973690 1339655668 516163750#0 516163750#1"/>
    </vehicle>
    <vehicle id="63" type="passenger" depart="101.94">
        <route edges="224260190#2 376666930#0 376666930#1 376666930#2 -376666916#0 376666932#1 -376666930#0 -224260190#2 376666921 376666931#3 376666931#4 1339655668 516163750#0 516163750#1 224260190#0 224260190#1"/>
    </vehicle>
    <vehicle id="64" type="passenger" depart="103.56">
        <route edges="-376666930#1 -376666930#0 -224260190#2 -224260190#1 -224260190#0 1206220503#0 1206220503#1 333554718 37402371 585341906#0 585341906#2 1206223946#1 619147740"/>
    </vehicle>
    <vehicle id="65" type="passenger" depart="105.18">
        <route edges="1206220504#1 -516163750#1 -516163750#0 -1339655668 -376666931#4 -376666931#3 -376666921 -224260190#1 -224260190#0"/>
    </vehicle>
    <vehicle id="66" type="passenger" depart="106.79">
        <route edges="464445691#1 464445692#0 464445692#1 -384030401#0 -516163750#1 -516163750#0 -1339655668 -376666931#4"/>
    </vehicle>
    <vehicle id="67" type="passenger" depart="108.41">
        <route edges="-1339655668 -376666931#4 -376666931#3 -376666921"/>
    </vehicle>
    <vehicle id="68" type="passenger" depart="110.03">
        <route edges="224260190#2 376666930#0 376666930#1 376666930#2 -376666916#0 376666932#1 -376666930#0 -224260190#2 -224260190#1 -224260190#0 -516163750#1 -516163750#0 -1339655668 -778973690"/>
    </vehicle>
    <vehicle id="69" type="passenger" depart="111.65">
        <route edges="651817398#2 651817398#3"/>
    </vehicle>
    <vehicle id="70" type="passenger" depart="113.27">
        <route edges="331990404#3 1206220504#0 1206220504#1 384030401#0 384030401#1 778973690"/>
    </vehicle>
    <vehicle id="71" type="passenger" depart="114.88">
        <route edges="585341906#2 1206223946#1 767111811#1 767111811#2"/>
    </vehicle>
    <vehicle id="72" type="passenger" depart="116.50">
        <route edges="331990404#3 1206220504#0 1206220504#1 224260190#0 224260190#1 224260190#2 376666930#0 376666930#1 376666930#2 -376666916#0 376666932#1 -376666930#0 -224260190#2"/>
    </vehicle>
    <vehicle id="73" type="passenger" depart="118.12">
        <route edges="1206220503#1 464445691#0 464445691#1 464445692#0 464445692#1 -384030401#0 224260190#0 224260190#1 224260190#2 376666930#0 376666930#1 376666930#2 -376666916#0 376666932#1"/>
    </vehicle>
    <vehicle id="74" type="passenger" depart="119.74">
        <route edges="-376666930#1 -376666930#0 -224260190#2 -224260190#1 -224260190#0 1206220503#0 1206220503#1 464445691#0 464445691#1 464445692#0 464445692#1"/>
    </vehicle>
    <vehicle id="75" type="passenger" depart="121.36">
        <route edges="376666930#1 376666930#2 -376666916#0 376666932#1 -376666930#0 -224260190#2 -224260190#1 -224260190#0 -516163750#1 -516163750#0 -1339655668 -778973690"/>
    </vehicle>
    <vehicle id="76" type="passenger" depart="122.98">
        <route edges="-224260190#3 -224260190#2 -224260190#1 -224260190#0 -516163750#1 -516163750#0 -1339655668 -778973690 -384030401#1"/>
    </vehicle>
    <vehicle id="77" type="passenger" depart="124.59">
        <route edges="376666921 376666931#3 376666931#4 1339655668 516163750#0"/>
    </vehicle>
    <vehicle id="78" type="passenger" depart="126.21">
        <route edges="331990404#0 331990404#1 331990404#3 1206220504#0 1206220504#1 224260190#0 224260190#1 224260190#2 376666930#0 376666930#1 376666930#2"/>
    </vehicle>
    <vehicle id="79" type="passenger" depart="127.83">
        <route edges="-1339655668 -376666931#4 -376666931#3 -376666921 224260190#2 376666930#0 376666930#1 376666930#2 376666916#1"/>
    </vehicle>
    <vehicle id="80" type="passenger" depart="129.45">
        <route edges="224260190#2 376666930#0 376666930#1 376666930#2 -376666916#0 376666932#1 -376666930#0 -224260190#2 -224260190#1 -224260190#0 -516163750#1 -516163750#0"/>
    </vehicle>
    <vehicle id="81" type="passenger" depart="131.07">
        <route edges="516163750#1 384030401#0 384030401#1 778973690 -1339655669"/>
    </vehicle>
    <vehicle id="82" type="passenger" depart="132.68">
        <route edges="-376666916#2 -376666916#1 -376666916#0 376666932#1 376666930#1 376666930#2"/>
    </vehicle>
    <vehicle id="83" type="passenger" depart="134.30">
        <route edges="615671505#0 331990404#0 331990404#1 331990404#3 1206220504#0 1206220504#1 224260190#0 224260190#1 224260190#2 376666930#0 376666930#1 376666930#2 -376666916#0"/>
    </vehicle>
    <vehicle id="84" type="passenger" depart="135.92">
        <route edges="-224260190#2 -224260190#1 -224260190#0 1206220503#0 1206220503#1 333554718 219696191#0"/>
    </vehicle>
    <vehicle id="85" type="passenger" depart="137.54">
        <route edges="218962181 464445691#0 464445691#1 464445692#0 464445692#1 -384030401#0 -516163750#1 -516163750#0 -1339655668 -376666931#4 -376666931#3 -376666931#2"/>
    </vehicle>
    <vehicle id="86" type="passenger" depart="139.16">
        <route edges="-376666931#3 -376666921 -224260190#1"/>
    </vehicle>
    <vehicle id="87" type="passenger" depart="140.77">
        <route edges="1339655669 -376666931#4 -376666931#3 -376666921 -224260190#1 -224260190#0 -516163750#1"/>
    </vehicle>
    <vehicle id="88" type="passenger" depart="142.39">
        <route edges="1339655668 516163750#0 516163750#1 384030401#0"/>
    </vehicle>
    <vehicle id="89" type="passenger" depart="144.01">
        <route edges="778973690 1339655668 516163750#0 516163750#1 1206220503#0 1206220503#1 464445691#0 464445691#1"/>
    </vehicle>
    <vehicle id="90" type="passenger" depart="145.63">
        <route edges="-1339655668 -376666931#4 -376666931#3 -376666921 -224260190#1 -224260190#0 1206220503#0 1206220503#1 464445691#0 464445691#1 464445691#3"/>
    </vehicle>
    <vehicle id="91" type="passenger" depart="147.25">
        <route edges="-224260190#1 -224260190#0 -516163750#1 -516163750#0 -1339655668 -1339655669"/>
    </vehicle>
    <vehicle id="92" type="passenger" depart="148.86">
        <route edges="-224260190#0 -516163750#1 -516163750#0 -1339655668 -376666931#4 -376666931#3 -376666921 224260190#2 376666930#0 -376666932#1 376666916#0 -376666930#2"/>
    </vehicle>
    <vehicle id="93" type="passenger" depart="150.48">
        <route edges="-376666930#0 -224260190#2 -224260190#1 -224260190#0 384030401#0 384030401#1"/>
    </vehicle>
    <vehicle id="94" type="passenger" depart="152.10">
        <route edges="384030401#1 778973690 1339655668 516163750#0 516163750#1 1206220503#0 1206220503#1 333554718 37402371 585341906#0 585341906#2 1206223946#1"/>
    </vehicle>
    <vehicle id="95" type="passenger" depart="153.72">
        <route edges="-384030401#1 -384030401#0 1206220503#0 1206220503#1 333554718 219696191#0"/>
    </vehicle>
    <vehicle id="96" type="passenger" depart="155.34">
        <route edges="1206223946#1 619147740"/>
    </vehicle>
    <vehicle id="97" type="passenger" depart="156.95">
        <route edges="376666932#0 376666916#0 -376666930#2"/>
    </vehicle>
    <vehicle id="98" type="passenger" depart="158.57">
        <route edges="464445692#0 464445692#1 384030401#1 778973690"/>
    </vehicle>
    <vehicle id="99" type="passenger" depart="160.19">
        <route edges="585352852#0-AddedOffRampEdge 913268036 1206220504#1 -516163750#1 -516163750#0 -1339655668 -376666931#4 -376666931#3"/>
    </vehicle>
    <vehicle id="100" type="passenger" depart="161.81">
        <route edges="-464445691#3 464445692#0 464445692#1 -384030401#0 224260190#0 224260190#1 224260190#2 376666930#0 376666930#1 376666930#2 376666916#1"/>
    </vehicle>
    <vehicle id="101" type="passenger" depart="163.43">
        <route edges="376666921 376666931#3 376666931#4 1339655668 516163750#0 516163750#1 1206220503#0 1206220503#1 333554718 37402371 585341906#0 585341906#2 1206223946#1 767111811#1"/>
    </vehicle>
    <vehicle id="102" type="passenger" depart="165.05">
        <route edges="516163750#0 516163750#1 224260190#0 224260190#1"/>
    </vehicle>
    <vehicle id="103" type="passenger" depart="166.66">
        <route edges="376666930#2 -376666916#0 376666932#1 -376666930#0 -224260190#2 -224260190#1 -224260190#0 -516163750#1 -516163750#0 -1339655668 -376666931#4 -376666931#3 -376666931#2 -376666931#1"/>
    </vehicle>
    <vehicle id="104" type="passenger" depart="168.28">
        <route edges="376666932#0 376666932#1 -376666930#0 -224260190#2 376666921 376666931#3 376666931#4 1339655668 516163750#0 516163750#1"/>
    </vehicle>
    <vehicle id="105" type="passenger" depart="169.90">
        <route edges="-376666930#0 -224260190#2 -224260190#1 -224260190#0 1206220503#0 1206220503#1 333554718 37402371 585341906#0 585341906#2 1206223946#1"/>
    </vehicle>
    <vehicle id="106" type="passenger" depart="171.52">
        <route edges="516163750#1 224260190#0 224260190#1 224260190#2 376666930#0 376666930#1 376666930#2 -376666916#0"/>
    </vehicle>
    <vehicle id="107" type="passenger" depart="173.14">
        <route edges="376666931#4 1339655668 516163750#0 516163750#1 224260190#0 224260190#1 224260190#2 224260190#3"/>
    </vehicle>
    <vehicle id="108" type="passenger" depart="174.75">
        <route edges="224260190#0 224260190#1 376666921 376666931#3 376666931#4 1339655668 516163750#0 516163750#1 384030401#0 384030401#1 778973690 -376666931#4 -376666931#3"/>
    </vehicle>
    <vehicle id="109" type="passenger" depart="176.37">
        <route edges="1339655668 516163750#0 516163750#1 1206220503#0 1206220503#1 333554718 37402371 585341907#0 585341907#2"/>
    </vehicle>
    <vehicle id="110" type="passenger" depart="177.99">
        <route edges="-376666916#1 -376666930#2 -376666930#1 -376666930#0 -224260190#2 -224260190#1 -224260190#0 -516163750#1 -516163750#0 -1339655668 -778973690 -384030401#1"/>
    </vehicle>
    <vehicle id="111" type="passenger" depart="179.61">
        <route edges="224260190#1 224260190#2 224260190#3"/>
    </vehicle>
    <vehicle id="112" type="passenger" depart="181.23">
        <route edges="-376666932#1 376666916#0 -376666930#2 -376666930#1 -376666930#0 -224260190#2 -224260190#1 -224260190#0 1206220503#0 1206220503#1 464445691#0 464445691#1 464445691#3"/>
    </vehicle>
    <vehicle id="113" type="passenger" depart="182.84">
        <route edges="778973690 1339655668 516163750#0 516163750#1 224260190#0 224260190#1 224260190#2"/>
    </vehicle>
    <vehicle id="114" type="passenger" depart="184.46">
        <route edges="1206220503#1 464445691#0 464445691#1 464445692#0 464445692#1 384030401#1 778973690 1339655668 516163750#0"/>
    </vehicle>
    <vehicle id="115" type="passenger" depart="186.08">
        <route edges="-384030401#0 1206220503#0 1206220503#1 333554718 219696191#0"/>
    </vehicle>
    <vehicle id="116" type="passenger" depart="187.70">
        <route edges="-384030401#1 -384030401#0 1206220503#0 1206220503#1 333554718"/>
    </vehicle>
    <vehicle id="117" type="passenger" depart="189.32">
        <route edges="376666930#1 376666930#2 -376666916#0 376666932#1 -376666930#0 -224260190#2 -224260190#1 -224260190#0 1206220503#0 1206220503#1 464445691#0 464445691#1 464445691#3"/>
    </vehicle>
    <vehicle id="118" type="passenger" depart="190.93">
        <route edges="1206220503#1 464445691#0 464445691#1 464445692#0 464445692#1 -384030401#0 224260190#0 224260190#1 376666921 376666931#3 376666931#4"/>
    </vehicle>
    <vehicle id="119" type="passenger" depart="192.55">
        <route edges="331990404#1 331990404#3 1206220504#0 1206220504#1 -516163750#1 -516163750#0 -1339655668 -778973690 -384030401#1"/>
    </vehicle>
    <vehicle id="120" type="passenger" depart="194.17">
        <route edges="384030401#0 384030401#1 778973690 1339655668 516163750#0 516163750#1 224260190#0 224260190#1 376666921 376666931#3 376666931#4"/>
    </vehicle>
    <vehicle id="121" type="passenger" depart="195.79">
        <route edges="-224260190#3 -224260190#2 376666921 376666931#3 376666931#4 1339655668 516163750#0 516163750#1 224260190#0 224260190#1"/>
    </vehicle>
    <vehicle id="122" type="passenger" depart="197.41">
        <route edges="-224260190#1 -224260190#0 1206220503#0 1206220503#1 464445691#0 464445691#1 464445692#0 464445692#1 -384030401#0 224260190#0 224260190#1"/>
    </vehicle>
    <vehicle id="123" type="passenger" depart="199.03">
        <route edges="376666930#0 376666930#1 376666930#2 376666916#1 376666916#2"/>
    </vehicle>
    <vehicle id="124" type="passenger" depart="200.64">
        <route edges="-778973690 -384030401#1 -384030401#0 -516163750#1 -516163750#0 -1339655668 -376666931#4 -376666931#3 -376666931#2"/>
    </vehicle>
    <vehicle id="125" type="passenger" depart="202.26">
        <route edges="-376666916#2 -376666916#1 -376666930#2 -376666930#1 -376666930#0 -224260190#2 -224260190#1 -224260190#0 -516163750#1 -516163750#0 -1339655668 -376666931#4 -376666931#3 -376666921 224260190#2"/>
    </vehicle>
    <vehicle id="126" type="passenger" depart="203.88">
        <route edges="-376666930#0 -224260190#2 -224260190#1 -224260190#0 -516163750#1 -516163750#0 -1339655668 -778973690"/>
    </vehicle>
    <vehicle id="127" type="passenger" depart="205.50">
        <route edges="376666930#0 376666930#1 376666930#2 -376666916#0 376666932#1 -376666930#0 -224260190#2 -224260190#1 -224260190#0 1206220503#0 1206220503#1 464445691#0"/>
    </vehicle>
    <vehicle id="128" type="passenger" depart="207.12">
        <route edges="778973690 1339655668 516163750#0 516163750#1 224260190#0 224260190#1 224260190#2 376666930#0 376666930#1 376666930#2 -376666916#0 376666932#1"/>
    </vehicle>
    <vehicle id="129" type="passenger" depart="208.73">
        <route edges="-376666921 224260190#2 376666930#0 376666930#1 376666930#2"/>
    </vehicle>
    <vehicle id="130" type="passenger" depart="210.35">
        <route edges="376666930#2 -376666916#0 376666932#1 -376666930#0 -224260190#2 -224260190#1 -224260190#0 1206220503#0"/>
    </vehicle>
    <vehicle id="131" type="passenger" depart="211.97">
        <route edges="-376666931#3 -376666931#2 -376666931#1 -376666931#0"/>
    </vehicle>
    <vehicle id="132" type="passenger" depart="213.59">
        <route edges="615671505#0 331990404#0 331990404#1 1206220507#0 464445691#0"/>
    </vehicle>
    <vehicle id="133" type="passenger" depart="215.21">
        <route edges="376666930#0 376666930#1 376666930#2 -376666916#0 376666932#1 -376666930#0 -224260190#2 376666921 376666931#3 376666931#4 1339655668 516163750#0 516163750#1 224260190#0"/>
    </vehicle>
    <vehicle id="134" type="passenger" depart="216.82">
        <route edges="1206220503#1 464445691#0 464445691#1 464445692#0 464445692#1 -384030401#0 224260190#0 224260190#1 224260190#2 376666930#0 -376666932#1"/>
    </vehicle>
    <vehicle id="135" type="passenger" depart="218.44">
        <route edges="376666930#0 376666930#1 376666930#2 -376666916#0 376666932#1 -376666930#0 -224260190#2 -224260190#1 -224260190#0 1206220503#0 1206220503#1 464445691#0 464445691#1 464445692#0 464445692#1"/>
    </vehicle>
    <vehicle id="136" type="passenger" depart="220.06">
        <route edges="376666930#2 -376666916#0"/>
    </vehicle>
    <vehicle id="137" type="passenger" depart="221.68">
        <route edges="376666930#1 376666930#2 -376666916#0 376666932#1 -376666930#0 -224260190#2 -224260190#1 -224260190#0 -516163750#1 -516163750#0 -1339655668 -376666931#4 -376666931#3 -376666921"/>