<?xml version="1.0" encoding="UTF-8"?>

<!-- generated on 2026-04-17 02:57:24.610215 by Eclipse SUMO randomTrips.py v1.26.0
<configuration>
    <net-file value="/Users/junlee/Desktop/2026-1/js/result/tradeoff_pet_top12_seed12_60min_20260417_025716/sumo_nets/cw_23040/network.net.xml"/>
    <output-trip-file value="/Users/junlee/Desktop/2026-1/js/result/tradeoff_pet_top12_seed12_60min_20260417_025716/sumo_nets/cw_23040/routes_seed50.trips.xml"/>
    <route-file value="/Users/junlee/Desktop/2026-1/js/result/tradeoff_pet_top12_seed12_60min_20260417_025716/sumo_nets/cw_23040/routes_seed50.rou.xml"/>
    <vehicle-class value="passenger"/>
    <seed value="50"/>
    <period value="1.6804628120137561"/>
</configuration>
-->

<routes xmlns:xsi="http://www.w3.org/2001/XMLSchema-instance" xsi:noNamespaceSchemaLocation="http://sumo.dlr.de/xsd/routes_file.xsd">
    <vType id="passenger" vClass="passenger"/>
    <trip id="0" depart="0.00" from="218962181" to="767111811#2" type="passenger"/>
    <trip id="1" depart="1.68" from="376666931#0" to="-376666921" type="passenger"/>
    <trip id="2" depart="3.36" from="778973690" to="-778973690" type="passenger"/>
    <trip id="3" depart="5.04" from="-376666932#1" to="767111811#2" type="passenger"/>
    <trip id="4" depart="6.72" from="376666916#0" to="376666930#2" type="passenger"/>
    <trip id="5" depart="8.40" from="615671505#0" to="767111811#1" type="passenger"/>
    <trip id="6" depart="10.08" from="376666931#2" to="585341906#2" type="passenger"/>
    <trip id="7" depart="11.76" from="1206220507#0" to="-384030401#1" type="passenger"/>
    <trip id="8" depart="13.44" from="376666931#2" to="-376666930#1" type="passenger"/>
    <trip id="9" depart="15.12" from="615671505#0" to="-516163750#1" type="passenger"/>
    <trip id="10" depart="16.80" from="376666931#2" to="224260190#0" type="passenger"/>
    <trip id="11" depart="18.49" from="-516163750#0" to="-384030401#0" type="passenger"/>
    <trip id="12" depart="20.17" from="376666921" to="384030401#0" type="passenger"/>
    <trip id="13" depart="21.85" from="376666921" to="767111811#2" type="passenger"/>
    <trip id="14" depart="23.53" from="219696191#1" to="619147740" type="passenger"/>
    <trip id="15" depart="25.21" from="464445692#1" to="585341906#0" type="passenger"/>
    <trip id="16" depart="26.89" from="-376666930#1" to="376666916#1" type="passenger"/>
    <trip id="17" depart="28.57" from="224260190#0" to="-376666930#0" type="passenger"/>
    <trip id="18" depart="30.25" from="-1339655668" to="-1339655668" type="passenger"/>
    <trip id="19" depart="31.93" from="778973690" to="585341907#2" type="passenger"/>
    <trip id="20" depart="33.61" from="516163750#1" to="516163750#1" type="passenger"/>
    <trip id="21" depart="35.29" from="-384030401#2" to="384030401#2" type="passenger"/>
    <trip id="22" depart="36.97" from="-376666921" to="-376666931#1" type="passenger"/>
    <trip id="23" depart="38.65" from="224260190#1" to="224260190#0" type="passenger"/>
    <trip id="24" depart="40.33" from="1206220504#1" to="585341906#2" type="passenger"/>
    <trip id="25" depart="42.01" from="1339655669" to="1206223946#1" type="passenger"/>
    <trip id="26" depart="43.69" from="-224260190#0" to="219696191#1" type="passenger"/>
    <trip id="27" depart="45.37" from="376666930#0" to="-1339655668" type="passenger"/>
    <trip id="28" depart="47.05" from="-376666930#0" to="-376666921" type="passenger"/>
    <trip id="29" depart="48.73" from="376666932#1" to="767111811#1" type="passenger"/>
    <trip id="30" depart="50.41" from="913268036" to="384030401#0" type="passenger"/>
    <trip id="31" depart="52.09" from="-224260190#1" to="224260190#3" type="passenger"/>
    <trip id="32" depart="53.77" from="1206220507#0" to="333554718" type="passenger"/>
    <trip id="33" depart="55.46" from="-384030401#2" to="-224260190#0" type="passenger"/>
    <trip id="34" depart="57.14" from="376666916#0" to="585341906#2" type="passenger"/>
    <trip id="35" depart="58.82" from="464445692#1" to="224260190#2" type="passenger"/>
    <trip id="36" depart="60.50" from="-376666930#1" to="-376666930#2" type="passenger"/>
    <trip id="37" depart="62.18" from="-376666930#1" to="376666916#0" type="passenger"/>
    <trip id="38" depart="63.86" from="-631259843" to="376666931#3" type="passenger"/>
    <trip id="39" depart="65.54" from="516163750#1" to="376666916#1" type="passenger"/>
    <trip id="40" depart="67.22" from="331990404#1" to="-376666932#0" type="passenger"/>
    <trip id="41" depart="68.90" from="1206220503#0" to="-1339655668" type="passenger"/>
    <trip id="42" depart="70.58" from="464445692#0" to="376666931#3" type="passenger"/>
    <trip id="43" depart="72.26" from="384030401#0" to="619147740" type="passenger"/>
    <trip id="44" depart="73.94" from="224260190#1" to="224260190#3" type="passenger"/>
    <trip id="45" depart="75.62" from="-631259843" to="376666931#4" type="passenger"/>
    <trip id="46" depart="77.30" from="-384030401#1" to="-224260190#1" type="passenger"/>
    <trip id="47" depart="78.98" from="-224260190#1" to="-376666932#1" type="passenger"/>
    <trip id="48" depart="80.66" from="-376666916#2" to="-376666931#1" type="passenger"/>
    <trip id="49" depart="82.34" from="376666931#3" to="219696191#0" type="passenger"/>
    <trip id="50" depart="84.02" from="-464445691#3" to="224260190#3" type="passenger"/>
    <trip id="51" depart="85.70" from="1206220503#0" to="-376666916#0" type="passenger"/>
    <trip id="52" depart="87.38" from="-376666930#1" to="224260190#2" type="passenger"/>
    <trip id="53" depart="89.06" from="376666931#2" to="37402371" type="passenger"/>
    <trip id="54" depart="90.74" from="-376666930#1" to="778973690" type="passenger"/>
    <trip id="55" depart="92.43" from="218962181" to="585341906#0" type="passenger"/>
    <trip id="56" depart="94.11" from="-631259844" to="376666931#3" type="passenger"/>
    <trip id="57" depart="95.79" from="1206220503#0" to="376666916#0" type="passenger"/>
    <trip id="58" depart="97.47" from="218962181" to="-376666931#2" type="passenger"/>
    <trip id="59" depart="99.15" from="-376666930#0" to="631259843" type="passenger"/>
    <trip id="60" depart="100.83" from="376666930#2" to="516163750#1" type="passenger"/>
    <trip id="61" depart="102.51" from="1206220507#0" to="224260190#1" type="passenger"/>
    <trip id="62" depart="104.19" from="-224260190#0" to="-384030401#0" type="passenger"/>
    <trip id="63" depart="105.87" from="376666921" to="464445692#0" type="passenger"/>
    <trip id="64" depart="107.55" from="-631259844" to="585341906#0" type="passenger"/>
    <trip id="65" depart="109.23" from="376666930#1" to="-224260190#0" type="passenger"/>
    <trip id="66" depart="110.91" from="224260190#1" to="-1339655668" type="passenger"/>
    <trip id="67" depart="112.59" from="1206220503#1" to="376666931#4" type="passenger"/>
    <trip id="68" depart="114.27" from="376666916#0" to="1206220503#1" type="passenger"/>
    <trip id="69" depart="115.95" from="376666930#0" to="767111811#2" type="passenger"/>
    <trip id="70" depart="117.63" from="376666931#2" to="778973690" type="passenger"/>
    <trip id="71" depart="119.31" from="384030401#1" to="224260190#0" type="passenger"/>
    <trip id="72" depart="120.99" from="615671505#0" to="464445691#3" type="passenger"/>
    <trip id="73" depart="122.67" from="376666930#1" to="1339655668" type="passenger"/>
    <trip id="74" depart="124.35" from="376666931#0" to="-376666930#0" type="passenger"/>
    <trip id="75" depart="126.03" from="224260190#2" to="376666930#1" type="passenger"/>
    <trip id="76" depart="127.72" from="376666932#1" to="631259844" type="passenger"/>
    <trip id="77" depart="129.40" from="-384030401#0" to="631259843" type="passenger"/>
    <trip id="78" depart="131.08" from="-376666930#1" to="585341906#0" type="passenger"/>
    <trip id="79" depart="132.76" from="-376666930#2" to="376666932#1" type="passenger"/>
    <trip id="80" depart="134.44" from="-376666931#3" to="631259843" type="passenger"/>
    <trip id="81" depart="136.12" from="913268036" to="384030401#0" type="passenger"/>
    <trip id="82" depart="137.80" from="384030401#1" to="585341906#0" type="passenger"/>
    <trip id="83" depart="139.48" from="-464445691#3" to="384030401#1" type="passenger"/>
    <trip id="84" depart="141.16" from="376666930#1" to="376666916#2" type="passenger"/>
    <trip id="85" depart="142.84" from="585352852#0" to="224260190#3" type="passenger"/>
    <trip id="86" depart="144.52" from="1206220503#0" to="376666930#1" type="passenger"/>
    <trip id="87" depart="146.20" from="464445691#0" to="376666931#4" type="passenger"/>
    <trip id="88" depart="147.88" from="1206220503#1" to="376666916#2" type="passenger"/>
    <trip id="89" depart="149.56" from="376666932#1" to="-376666931#4" type="passenger"/>
    <trip id="90" depart="151.24" from="-516163750#1" to="37402371" type="passenger"/>
    <trip id="91" depart="152.92" from="-376666921" to="-376666931#1" type="passenger"/>
    <trip id="92" depart="154.60" from="-778973690" to="585341906#0" type="passenger"/>
    <trip id="93" depart="156.28" from="464445691#1" to="1206220503#1" type="passenger"/>
    <trip id="94" depart="157.96" from="-376666931#3" to="464445692#0" type="passenger"/>
    <trip id="95" depart="159.64" from="224260190#2" to="516163750#1" type="passenger"/>
    <trip id="96" depart="161.32" from="464445691#1" to="585341906#2" type="passenger"/>
    <trip id="97" depart="163.00" from="331990404#0" to="-778973690" type="passenger"/>
    <trip id="98" depart="164.69" from="585352852#0-AddedOffRampEdge" to="585341907#0" type="passenger"/>
    <trip id="99" depart="166.37" from="331990404#0" to="384030401#2" type="passenger"/>
    <trip id="100" depart="168.05" from="376666931#4" to="384030401#1" type="passenger"/>
    <trip id="101" depart="169.73" from="1206220507#0" to="767111811#2" type="passenger"/>
    <trip id="102" depart="171.41" from="1206220503#1" to="-376666930#2" type="passenger"/>
    <trip id="103" depart="173.09" from="-516163750#1" to="219696191#0" type="passenger"/>
    <trip id="104" depart="174.77" from="331990404#0" to="-376666930#1" type="passenger"/>
    <trip id="105" depart="176.45" from="376666931#3" to="631259843" type="passenger"/>
    <trip id="106" depart="178.13" from="376666931#1" to="-376666931#4" type="passenger"/>
    <trip id="107" depart="179.81" from="1339655668" to="-376666932#1" type="passenger"/>
    <trip id="108" depart="181.49" from="376666916#0" to="-224260190#2" type="passenger"/>
    <trip id="109" depart="183.17" from="376666916#0" to="464445692#1" type="passenger"/>
    <trip id="110" depart="184.85" from="-778973690" to="384030401#2" type="passenger"/>
    <trip id="111" depart="186.53" from="464445691#1" to="767111811#1" type="passenger"/>
    <trip id="112" depart="188.21" from="464445692#1" to="224260190#2" type="passenger"/>
    <trip id="113" depart="189.89" from="1206220503#1" to="1206220503#0" type="passenger"/>
    <trip id="114" depart="191.57" from="1339655669" to="-376666931#2" type="passenger"/>
    <trip id="115" depart="193.25" from="-376666921" to="-376666921" type="passenger"/>
    <trip id="116" depart="194.93" from="376666931#2" to="-376666932#1" type="passenger"/>
    <trip id="117" depart="196.61" from="224260190#2" to="224260190#3" type="passenger"/>
    <trip id="118" depart="198.29" from="1206220503#0" to="1206223946#1" type="passenger"/>
    <trip id="119" depart="199.98" from="-376666931#4" to="-376666931#4" type="passenger"/>
    <trip id="120" depart="201.66" from="218962181" to="-516163750#0" type="passenger"/>
    <trip id="121" depart="203.34" from="219696191#1" to="219696191#1" type="passenger"/>
    <trip id="122" depart="205.02" from="-376666916#1" to="585341907#0" type="passenger"/>
    <trip id="123" depart="206.70" from="-516163750#0" to="376666916#2" type="passenger"/>
    <trip id="124" depart="208.38" from="376666916#0" to="464445692#1" type="passenger"/>
    <trip id="125" depart="210.06" from="-778973690" to="376666930#2" type="passenger"/>
    <trip id="126" depart="211.74" from="-1339655668" to="-1339655668" type="passenger"/>
    <trip id="127" depart="213.42" from="-376666930#1" to="-376666931#4" type="passenger"/>
    <trip id="128" depart="215.10" from="384030401#1" to="585341906#2" type="passenger"/>
    <trip id="129" depart="216.78" from="1339655668" to="376666930#0" type="passenger"/>
    <trip id="130" depart="218.46" from="1206220504#1" to="-376666931#3" type="passenger"/>
    <trip id="131" depart="220.14" from="376666921" to="224260190#0" type="passenger"/>
    <trip id="132" depart="221.82" from="585341906#0" to="619147740" type="passenger"/>
    <trip id="133" depart="223.50" from="464445691#0" to="384030401#0" type="passenger"/>
    <trip id="134" depart="225.18" from="464445692#0" to="224260190#1" type="passenger"/>
    <trip id="135" depart="226.86" from="376666932#0" to="464445691#3" type="passenger"/>
    <trip id="136" depart="228.54" from="376666931#3" to="376666916#0" type="passenger"/>
    <trip id="137" depart="230.22" from="516163750#1" to="-376666931#2" type="passenger"/>
    <trip id="138" depart="231.90" from="-376666921" to="464445691#0" type="passenger"/>
    <trip id="139" depart="233.58" from="-376666931#3" to="376666916#0" type="passenger"/>
    <trip id="140" depart="235.26" from="376666931#4" to="585341907#2" type="passenger"/>
    <trip id="141" depart="236.95" from="224260190#2" to="-384030401#1" type="passenger"/>
    <trip id="142" depart="238.63" from="1206220503#0" to="464445692#0" type="passenger"/>
    <trip id="143" depart="240.31" from="376666932#0" to="-224260190#1" type="passenger"/>
    <trip id="144" depart="241.99" from="-1339655668" to="-376666916#0" type="passenger"/>
    <trip id="145" depart="243.67" from="464445691#1" to="-376666931#4" type="passenger"/>
    <trip id="146" depart="245.35" from="-224260190#2" to="1206223946#1" type="passenger"/>
    <trip id="147" depart="247.03" from="376666931#4" to="37402371" type="passenger"/>
    <trip id="148" depart="248.71" from="224260190#0" to="224260190#2" type="passenger"/>
    <trip id="149" depart="250.39" from="-464445691#1" to="37402371" type="passenger"/>
    <trip id="150" depart="252.07" from="376666932#0" to="464445691#3" type="passenger"/>
    <trip id="151" depart="253.75" from="-778973690" to="-1339655668" type="passenger"/>
    <trip id="152" depart="255.43" from="384030401#1" to="-224260190#1" type="passenger"/>
    <trip id="153" depart="257.11" from="-376666916#1" to="1339655668" type="passenger"/>
    <trip id="154" depart="258.79" from="516163750#1" to="1206220503#1" type="passenger"/>
    <trip id="155" depart="260.47" from="1206220507#0" to="-516163750#0" type="passenger"/>
    <trip id="156" depart="262.15" from="1206220503#0" to="-376666931#4" type="passenger"/>
    <trip id="157" depart="263.83" from="464445692#0" to="767111811#1" type="passenger"/>
    <trip id="158" depart="265.51" from="464445692#1" to="-516163750#1" type="passenger"/>
    <trip id="159" depart="267.19" from="384030401#1" to="-376666916#0" type="passenger"/>
    <trip id="160" depart="268.87" from="1206220504#0" to="-376666921" type="passenger"/>
    <trip id="161" depart="270.55" from="-376666921" to="1206220503#0" type="passenger"/>
    <trip id="162" depart="272.23" from="-224260190#3" to="37402371" type="passenger"/>
    <trip id="163" depart="273.92" from="585352852#0-AddedOffRampEdge" to="1206220503#0" type="passenger"/>
    <trip id="164" depart="275.60" from="376666931#1" to="516163750#0" type="passenger"/>
    <trip id="165" depart="277.28" from="-384030401#1" to="384030401#0" type="passenger"/>
    <trip id="166" depart="278.96" from="376666931#3" to="-376666921" type="passenger"/>
    <trip id="167" depart="280.64" from="1339655668" to="1206220503#0" type="passenger"/>
    <trip id="168" depart="282.32" from="-516163750#1" to="-376666931#2" type="passenger"/>
    <trip id="169" depart="284.00" from="-224260190#3" to="376666932#1" type="passenger"/>
    <trip id="170" depart="285.68" from="-376666932#1" to="224260190#1" type="passenger"/>
    <trip id="171" depart="287.36" from="-516163750#1" to="631259844" type="passenger"/>
    <trip id="172" depart="289.04" from="376666931#3" to="37402371" type="passenger"/>
    <trip id="173" depart="290.72" from="-224260190#0" to="778973690" type="passenger"/>
    <trip id="174" depart="292.40" from="913268036" to="-376666930#1" type="passenger"/>
    <trip id="175" depart="294.08" from="516163750#1" to="585341906#2" type="passenger"/>
    <trip id="176" depart="295.76" from="585352852#1" to="-376666930#2" type="passenger"/>
    <trip id="177" depart="297.44" from="224260190#2" to="-224260190#2" type="passenger"/>
    <trip id="178" depart="299.12" from="-384030401#2" to="-376666931#3" type="passenger"/>
    <trip id="179" depart="300.80" from="-384030401#1" to="376666916#0" type="passenger"/>
    <trip id="180" depart="302.48" from="376666921" to="1206223946#1" type="passenger"/>
    <trip id="181" depart="304.16" from="376666931#2" to="-376666931#0" type="passenger"/>
    <trip id="182" depart="305.84" from="224260190#1" to="-376666930#2" type="passenger"/>
    <trip id="183" depart="307.52" from="-224260190#0" to="376666916#2" type="passenger"/>
    <trip id="184" depart="309.21" from="-224260190#1" to="619147740" type="passenger"/>
    <trip id="185" depart="310.89" from="331990404#1" to="-376666930#2" type="passenger"/>
    <trip id="186" depart="312.57" from="-376666932#1" to="-778973690" type="passenger"/>
    <trip id="187" depart="314.25" from="-376666930#2" to="376666930#2" type="passenger"/>
    <trip id="188" depart="315.93" from="585352852#0-AddedOffRampEdge" to="219696191#1" type="passenger"/>
    <trip id="189" depart="317.61" from="376666932#1" to="376666930#1" type="passenger"/>
    <trip id="190" depart="319.29" from="-516163750#0" to="-1339655668" type="passenger"/>
    <trip id="191" depart="320.97" from="224260190#0" to="376666931#3" type="passenger"/>
    <trip id="192" depart="322.65" from="384030401#1" to="-376666931#3" type="passenger"/>
    <trip id="193" depart="324.33" from="224260190#1" to="224260190#1" type="passenger"/>
    <trip id="194" depart="326.01" from="-384030401#1" to="376666931#3" type="passenger"/>
    <trip id="195" depart="327.69" from="1206220503#0" to="-376666931#2" type="passenger"/>
    <trip id="196" depart="329.37" from="331990404#1" to="224260190#3" type="passenger"/>
    <trip id="197" depart="331.05" from="376666931#1" to="-1339655669" type="passenger"/>
    <trip id="198" depart="332.73" from="-631259844" to="-376666931#2" type="passenger"/>
    <trip id="199" depart="334.41" from="376666931#4" to="767111811#1" type="passenger"/>
    <trip id="200" depart="336.09" from="376666931#3" to="-376666931#2" type="passenger"/>
    <trip id="201" depart="337.77" from="-376666916#2" to="-376666932#0" type="passenger"/>
    <trip id="202" depart="339.45" from="331990404#1" to="-376666921" type="passenger"/>
    <trip id="203" depart="341.13" from="-376666932#1" to="376666916#2" type="passenger"/>
    <trip id="204" depart="342.81" from="-376666931#4" to="516163750#1" type="passenger"/>
    <trip id="205" depart="344.49" from="376666930#1" to="384030401#0" type="passenger"/>
    <trip id="206" depart="346.18" from="376666931#4" to="-384030401#1" type="passenger"/>
    <trip id="207" depart="347.86" from="-224260190#3" to="464445691#3" type="passenger"/>
    <trip id="208" depart="349.54" from="-631259843" to="376666916#1" type="passenger"/>
    <trip id="209" depart="351.22" from="376666931#1" to="585341906#2" type="passenger"/>
    <trip id="210" depart="352.90" from="-651817398#3" to="-651817398#1" type="passenger"/>
    <trip id="211" depart="354.58" from="585352852#0" to="585341907#0" type="passenger"/>
    <trip id="212" depart="356.26" from="376666930#0" to="-224260190#1" type="passenger"/>
    <trip id="213" depart="357.94" from="376666931#3" to="464445692#0" type="passenger"/>
    <trip id="214" depart="359.62" from="-376666931#3" to="631259844" type="passenger"/>
    <trip id="215" depart="361.30" from="1339655669" to="464445691#1" type="passenger"/>
    <trip id="216" depart="362.98" from="585352852#0" to="464445691#0" type="passenger"/>
    <trip id="217" depart="364.66" from="-384030401#1" to="376666930#0" type="passenger"/>
    <trip id="218" depart="366.34" from="376666930#0" to="-376666932#1" type="passenger"/>
    <trip id="219" depart="368.02" from="-778973690" to="224260190#3" type="passenger"/>
    <trip id="220" depart="369.70" from="376666932#1" to="1206220503#1" type="passenger"/>
    <trip id="221" depart="371.38" from="-376666916#0" to="-1339655668" type="passenger"/>
    <trip id="222" depart="373.06" from="376666916#0" to="-384030401#0" type="passenger"/>
    <trip id="223" depart="374.74" from="516163750#0" to="384030401#2" type="passenger"/>
    <trip id="224" depart="376.42" from="516163750#1" to="767111811#2" type="passenger"/>
    <trip id="225" depart="378.10" from="-376666930#0" to="1206223946#1" type="passenger"/>
    <trip id="226" depart="379.78" from="384030401#1" to="464445691#1" type="passenger"/>
    <trip id="227" depart="381.47" from="516163750#0" to="464445691#3" type="passenger"/>
    <trip id="228" depart="383.15" from="464445691#1" to="1206220503#1" type="passenger"/>
    <trip id="229" depart="384.83" from="615671505#0" to="464445691#1" type="passenger"/>
    <trip id="230" depart="386.51" from="778973690" to="384030401#1" type="passenger"/>
    <trip id="231" depart="388.19" from="-224260190#0" to="-376666930#2" type="passenger"/>
    <trip id="232" depart="389.87" from="-224260190#0" to="384030401#0" type="passenger"/>
    <trip id="233" depart="391.55" from="585352852#1" to="218962181" type="passenger"/>
    <trip id="234" depart="393.23" from="224260190#2" to="767111811#1" type="passenger"/>
    <trip id="235" depart="394.91" from="464445692#1" to="464445691#1" type="passenger"/>
    <trip id="236" depart="396.59" from="224260190#0" to="-384030401#0" type="passenger"/>
    <trip id="237" depart="398.27" from="376666932#0" to="767111811#2" type="passenger"/>
    <trip id="238" depart="399.95" from="464445691#0" to="-376666932#1" type="passenger"/>
    <trip id="239" depart="401.63" from="1206220504#1" to="585341906#2" type="passenger"/>
    <trip id="240" depart="403.31" from="516163750#1" to="376666921" type="passenger"/>
    <trip id="241" depart="404.99" from="376666931#2" to="224260190#2" type="passenger"/>
    <trip id="242" depart="406.67" from="384030401#1" to="376666916#1" type="passenger"/>
    <trip id="243" depart="408.35" from="1339655669" to="37402371" type="passenger"/>
    <trip id="244" depart="410.03" from="-631259844" to="1206223946#1" type="passenger"/>
    <trip id="245" depart="411.71" from="-376666921" to="-376666931#3" type="passenger"/>
    <trip id="246" depart="413.39" from="-376666931#4" to="384030401#0" type="passenger"/>
    <trip id="247" depart="415.07" from="-631259843" to="1339655668" type="passenger"/>
    <trip id="248" depart="416.75" from="376666916#0" to="619147740" type="passenger"/>
    <trip id="249" depart="418.44" from="913268036" to="631259844" type="passenger"/>
    <trip id="250" depart="420.12" from="-376666921" to="333554718" type="passenger"/>
    <trip id="251" depart="421.80" from="1206220503#1" to="-778973690" type="passenger"/>
    <trip id="252" depart="423.48" from="-376666930#1" to="-376666930#1" type="passenger"/>
    <trip id="253" depart="425.16" from="-376666916#0" to="-376666921" type="passenger"/>
    <trip id="254" depart="426.84" from="615671505#0" to="-224260190#0" type="passenger"/>
    <trip id="255" depart="428.52" from="-384030401#1" to="-376666931#3" type="passenger"/>
    <trip id="256" depart="430.20" from="-376666921" to="767111811#2" type="passenger"/>
    <trip id="257" depart="431.88" from="1206220503#0" to="-778973690" type="passenger"/>
    <trip id="258" depart="433.56" from="376666930#0" to="219696191#0" type="passenger"/>
    <trip id="259" depart="435.24" from="376666932#1" to="376666916#1" type="passenger"/>
    <trip id="260" depart="436.92" from="615671505#0" to="585341907#2" type="passenger"/>
    <trip id="261" depart="438.60" from="-376666921" to="464445692#1" type="passenger"/>
    <trip id="262" depart="440.28" from="-376666930#1" to="376666921" type="passenger"/>
    <trip id="263" depart="441.96" from="-376666930#2" to="384030401#0" type="passenger"/>
    <trip id="264" depart="443.64" from="331990404#3" to="-376666931#1" type="passenger"/>
    <trip id="265" depart="445.32" from="376666930#2" to="1206220503#0" type="passenger"/>
    <trip id="266" depart="447.00" from="376666930#2" to="224260190#1" type="passenger"/>
    <trip id="267" depart="448.68" from="464445692#0" to="-376666931#3" type="passenger"/>
    <trip id="268" depart="450.36" from="333554718" to="333554718" type="passenger"/>
    <trip id="269" depart="452.04" from="585352852#0" to="-384030401#1" type="passenger"/>
    <trip id="270" depart="453.72" from="376666931#1" to="376666931#2" type="passenger"/>
    <trip id="271" depart="455.41" from="464445692#1" to="-376666931#0" type="passenger"/>
    <trip id="272" depart="457.09" from="516163750#1" to="-376666931#4" type="passenger"/>
    <trip id="273" depart="458.77" from="-376666921" to="-376666931#4" type="passenger"/>
    <trip id="274" depart="460.45" from="464445692#0" to="-224260190#0" type="passenger"/>
    <trip id="275" depart="462.13" from="615671505#0" to="376666916#0" type="passenger"/>
    <trip id="276" depart="463.81" from="-376666916#2" to="-516163750#1" type="passenger"/>
    <trip id="277" depart="465.49" from="778973690" to="-516163750#0" type="passenger"/>
    <trip id="278" depart="467.17" from="224260190#1" to="224260190#0" type="passenger"/>
    <trip id="279" depart="468.85" from="913268036" to="-376666932#0" type="passenger"/>
    <trip id="280" depart="470.53" from="1339655668" to="585341906#2" type="passenger"/>
    <trip id="281" depart="472.21" from="331990404#3" to="224260190#1" type="passenger"/>
    <trip id="282" depart="473.89" from="-631259843" to="224260190#3" type="passenger"/>
    <trip id="283" depart="475.57" from="-384030401#0" to="384030401#0" type="passenger"/>
    <trip id="284" depart="477.25" from="1206220503#0" to="1206220503#1" type="passenger"/>
    <trip id="285" depart="478.93" from="-1339655668" to="384030401#1" type="passenger"/>
    <trip id="286" depart="480.61" from="778973690" to="224260190#1" type="passenger"/>
    <trip id="287" depart="482.29" from="376666931#0" to="585341907#2" type="passenger"/>
    <trip id="288" depart="483.97" from="376666931#2" to="464445691#3" type="passenger"/>
    <trip id="289" depart="485.65" from="-376666930#2" to="-376666930#2" type="passenger"/>
    <trip id="290" depart="487.33" from="464445692#0" to="585341907#2" type="passenger"/>
    <trip id="291" depart="489.01" from="376666932#1" to="-516163750#0" type="passenger"/>
    <trip id="292" depart="490.70" from="-516163750#0" to="-376666931#4" type="passenger"/>
    <trip id="293" depart="492.38" from="-224260190#0" to="376666916#2" type="passenger"/>
    <trip id="294" depart="494.06" from="-376666930#2" to="619147740" type="passenger"/>
    <trip id="295" depart="495.74" from="615671505#0" to="464445691#3" type="passenger"/>
    <trip id="296" depart="497.42" from="1206220507#0" to="-1339655669" type="passenger"/>
    <trip id="297" depart="499.10" from="464445691#0" to="-376666931#0" type="passenger"/>
    <trip id="298" depart="500.78" from="1206220503#0" to="-376666916#0" type="passenger"/>
    <trip id="299" depart="502.46" from="384030401#0" to="384030401#1" type="passenger"/>
    <trip id="300" depart="504.14" from="-1339655668" to="1339655668" type="passenger"/>
    <trip id="301" depart="505.82" from="331990404#0" to="219696191#1" type="passenger"/>
    <trip id="302" depart="507.50" from="37402371" to="1206223946#1" type="passenger"/>
    <trip id="303" depart="509.18" from="585352852#0-AddedOffRampEdge" to="464445692#0" type="passenger"/>
    <trip id="304" depart="510.86" from="516163750#1" to="376666930#1" type="passenger"/>
    <trip id="305" depart="512.54" from="-376666916#1" to="-376666931#4" type="passenger"/>
    <trip id="306" depart="514.22" from="-376666931#4" to="224260190#3" type="passenger"/>
    <trip id="307" depart="515.90" from="218962181" to="376666931#4" type="passenger"/>
    <trip id="308" depart="517.58" from="-376666916#2" to="767111811#2" type="passenger"/>
    <trip id="309" depart="519.26" from="333554718" to="219696191#1" type="passenger"/>
    <trip id="310" depart="520.94" from="331990404#3" to="384030401#2" type="passenger"/>
    <trip id="311" depart="522.62" from="464445692#0" to="464445692#1" type="passenger"/>
    <trip id="312" depart="524.30" from="376666930#2" to="219696191#1" type="passenger"/>
    <trip id="313" depart="525.98" from="218962181" to="1206223946#1" type="passenger"/>
    <trip id="314" depart="527.67" from="224260190#0" to="464445691#1" type="passenger"/>
    <trip id="315" depart="529.35" from="-376666916#1" to="516163750#0" type="passenger"/>
    <trip id="316" depart="531.03" from="218962181" to="219696191#0" type="passenger"/>
    <trip id="317" depart="532.71" from="-384030401#0" to="631259844" type="passenger"/>
    <trip id="318" depart="534.39" from="913268036" to="-376666931#2" type="passenger"/>
    <trip id="319" depart="536.07" from="1206220507#0" to="224260190#0" type="passenger"/>
    <trip id="320" depart="537.75" from="464445692#1" to="585341907#0" type="passenger"/>
    <trip id="321" depart="539.43" from="-224260190#0" to="376666930#1" type="passenger"/>
    <trip id="322" depart="541.11" from="331990404#1" to="333554718" type="passenger"/>
    <trip id="323" depart="542.79" from="1339655669" to="224260190#1" type="passenger"/>