<?xml version="1.0" encoding="UTF-8"?>

<!-- generated on 2026-04-15 03:10:54.806524 by Eclipse SUMO randomTrips.py v1.26.0
<configuration>
    <net-file value="/Users/junlee/Desktop/2026-1/js/result/report_top12_seed4_2h/sumo_nets/cw_5831/network.net.xml"/>
    <output-trip-file value="/Users/junlee/Desktop/2026-1/js/result/report_top12_seed4_2h/sumo_nets/cw_5831/routes_seed42.trips.xml"/>
    <route-file value="/Users/junlee/Desktop/2026-1/js/result/report_top12_seed4_2h/sumo_nets/cw_5831/routes_seed42.rou.xml"/>
    <vehicle-class value="passenger"/>
    <end value="7200.0"/>
    <period value="7.865448464886305"/>
</configuration>
-->

<routes xmlns:xsi="http://www.w3.org/2001/XMLSchema-instance" xsi:noNamespaceSchemaLocation="http://sumo.dlr.de/xsd/routes_file.xsd">
    <vType id="passenger" vClass="passenger"/>
    <trip id="0" depart="0.00" from="1206223945" to="-770860565#1" type="passenger"/>
    <trip id="1" depart="7.87" from="-770860565#1" to="585341901#3" type="passenger"/>
    <trip id="2" depart="15.73" from="615671502" to="585341904#1" type="passenger"/>
    <trip id="3" depart="23.60" from="-770860565#1" to="615671500#1" type="passenger"/>
    <trip id="4" depart="31.46" from="651818430#3" to="-176728949" type="passenger"/>
    <trip id="5" depart="39.33" from="651818430#2" to="619147738#1" type="passenger"/>
    <trip id="6" depart="47.19" from="183272654" to="-770860548#1" type="passenger"/>
    <trip id="7" depart="55.06" from="78628775#3" to="183272713#1" type="passenger"/>
    <trip id="8" depart="62.92" from="-628816140#2" to="-628816136#1" type="passenger"/>
    <trip id="9" depart="70.79" from="770860548#3" to="615671503" type="passenger"/>
    <trip id="10" depart="78.65" from="651818430#2" to="628816136#0" type="passenger"/>
    <trip id="11" depart="86.52" from="585341901#1" to="788296726#0" type="passenger"/>
    <trip id="12" depart="94.39" from="770860548#1" to="615671505#1" type="passenger"/>
    <trip id="13" depart="102.25" from="770860551" to="615671500#0" type="passenger"/>
    <trip id="14" depart="110.12" from="619147736" to="-516948900#2" type="passenger"/>
    <trip id="15" depart="117.98" from="-788296726#0" to="176728955#0" type="passenger"/>
    <trip id="16" depart="125.85" from="615671500#1" to="218926711#0" type="passenger"/>
    <trip id="17" depart="133.71" from="198691704#1" to="-770860552#2" type="passenger"/>
    <trip id="18" depart="141.58" from="615671502" to="615671505#0" type="passenger"/>
    <trip id="19" depart="149.44" from="-770860548#4" to="628816136#0" type="passenger"/>
    <trip id="20" depart="157.31" from="-770860548#3" to="218926711#2" type="passenger"/>
    <trip id="21" depart="165.17" from="796927124" to="619147726#1" type="passenger"/>
    <trip id="22" depart="173.04" from="585341901#3" to="619147738#0" type="passenger"/>
    <trip id="23" depart="180.91" from="176728955#0" to="1206223943" type="passenger"/>
    <trip id="24" depart="188.77" from="-770860565#0" to="78628775#3" type="passenger"/>
    <trip id="25" depart="196.64" from="770860552#2" to="183272574#1" type="passenger"/>
    <trip id="26" depart="204.50" from="615671503" to="218926711#5" type="passenger"/>
    <trip id="27" depart="212.37" from="1206223943" to="-788296726#1" type="passenger"/>
    <trip id="28" depart="220.23" from="218926711#1" to="-770860565#0" type="passenger"/>
    <trip id="29" depart="228.10" from="913233121" to="585341901#3" type="passenger"/>
    <trip id="30" depart="235.96" from="-628816140#1" to="-516948900#2" type="passenger"/>
    <trip id="31" depart="243.83" from="-651818430#1" to="619147726#0" type="passenger"/>
    <trip id="32" depart="251.69" from="651818430#1" to="333557072#2" type="passenger"/>
    <trip id="33" depart="259.56" from="-516948900#8" to="218926711#2" type="passenger"/>
    <trip id="34" depart="267.43" from="788296726#0" to="770860551" type="passenger"/>
    <trip id="35" depart="275.29" from="-651818430#1" to="438360329#0" type="passenger"/>
    <trip id="36" depart="283.16" from="333557072#0" to="78628775#4" type="passenger"/>
    <trip id="37" depart="291.02" from="770860552#2" to="1206223940" type="passenger"/>
    <trip id="38" depart="298.89" from="777881147#1" to="770860552#1" type="passenger"/>
    <trip id="39" depart="306.75" from="176728949" to="619147726#1" type="passenger"/>
    <trip id="40" depart="314.62" from="585341909" to="-770860542#1" type="passenger"/>
    <trip id="41" depart="322.48" from="628816136#0" to="585341904#1" type="passenger"/>
    <trip id="42" depart="330.35" from="628816136#2" to="585341904#0" type="passenger"/>
    <trip id="43" depart="338.21" from="-176728955#0" to="183272654" type="passenger"/>
    <trip id="44" depart="346.08" from="-176728955#2" to="78628775#0" type="passenger"/>
    <trip id="45" depart="353.95" from="770860552#2" to="770860548#3" type="passenger"/>
    <trip id="46" depart="361.81" from="176728951" to="-516948900#3" type="passenger"/>
    <trip id="47" depart="369.68" from="770860552#2" to="78628775#3" type="passenger"/>
    <trip id="48" depart="377.54" from="-628816140#1" to="516948900#8" type="passenger"/>
    <trip id="49" depart="385.41" from="628816136#0" to="-651818430#2" type="passenger"/>
    <trip id="50" depart="393.27" from="1206223943" to="770860552#2" type="passenger"/>
    <trip id="51" depart="401.14" from="218926711#5" to="-770860552#2" type="passenger"/>
    <trip id="52" depart="409.00" from="585341901#1" to="628816136#0" type="passenger"/>
    <trip id="53" depart="416.87" from="-770860552#2" to="183272574#1" type="passenger"/>
    <trip id="54" depart="424.73" from="913233121" to="619147728" type="passenger"/>
    <trip id="55" depart="432.60" from="289213613#0" to="585341902" type="passenger"/>
    <trip id="56" depart="440.47" from="-651818430#2" to="-770860565#1" type="passenger"/>
    <trip id="57" depart="448.33" from="183272654" to="615671500#1" type="passenger"/>
    <trip id="58" depart="456.20" from="-788296726#0" to="-770860565#0" type="passenger"/>
    <trip id="59" depart="464.06" from="770860551" to="-516948900#5" type="passenger"/>
    <trip id="60" depart="471.93" from="-788296726#1" to="619147730#3" type="passenger"/>
    <trip id="61" depart="479.79" from="-770860565#0" to="-651818430#2" type="passenger"/>
    <trip id="62" depart="487.66" from="438360329#0" to="651818430#1" type="passenger"/>
    <trip id="63" depart="495.52" from="651818430#2" to="-770860551" type="passenger"/>
    <trip id="64" depart="503.39" from="-628816140#2" to="438360329#0" type="passenger"/>
    <trip id="65" depart="511.25" from="619147738#1" to="619147730#3" type="passenger"/>
    <trip id="66" depart="519.12" from="796927124" to="-628816136#1" type="passenger"/>
    <trip id="67" depart="526.99" from="218926711#2" to="183272713#1" type="passenger"/>
    <trip id="68" depart="534.85" from="770860551" to="1206223939" type="passenger"/>
    <trip id="69" depart="542.72" from="218926711#5" to="1206223944" type="passenger"/>
    <trip id="70" depart="550.58" from="1206223939" to="78628775#0" type="passenger"/>
    <trip id="71" depart="558.45" from="289213613#3" to="770860551" type="passenger"/>
    <trip id="72" depart="566.31" from="585341901#3" to="-516948900#2" type="passenger"/>
    <trip id="73" depart="574.18" from="913233121" to="770860548#3" type="passenger"/>
    <trip id="74" depart="582.04" from="788296726#0" to="78628775#0" type="passenger"/>
    <trip id="75" depart="589.91" from="770860548#3" to="-770860548#2" type="passenger"/>
    <trip id="76" depart="597.77" from="516948900#0" to="-770860565#0" type="passenger"/>
    <trip id="77" depart="605.64" from="218926711#2" to="-516948900#3" type="passenger"/>
    <trip id="78" depart="613.50" from="198691704#2" to="796927124" type="passenger"/>
    <trip id="79" depart="621.37" from="1206223943" to="651818430#1" type="passenger"/>
    <trip id="80" depart="629.24" from="333557072#0" to="333557072#2" type="passenger"/>
    <trip id="81" depart="637.10" from="78628775#3" to="919984684" type="passenger"/>
    <trip id="82" depart="644.97" from="-770860548#2" to="176728955#1" type="passenger"/>
    <trip id="83" depart="652.83" from="788296726#0" to="615671500#0" type="passenger"/>
    <trip id="84" depart="660.70" from="585341901#2" to="628816136#2" type="passenger"/>
    <trip id="85" depart="668.56" from="516948900#3" to="770860549" type="passenger"/>
    <trip id="86" depart="676.43" from="-770860548#2" to="78628775#5" type="passenger"/>
    <trip id="87" depart="684.29" from="585341908#0" to="619147730#3" type="passenger"/>
    <trip id="88" depart="692.16" from="-788296726#1" to="-651818430#1" type="passenger"/>
    <trip id="89" depart="700.02" from="770860565#0" to="-788296726#1" type="passenger"/>
    <trip id="90" depart="707.89" from="585341908#0" to="615671505#1" type="passenger"/>
    <trip id="91" depart="715.76" from="218926711#5" to="615671500#1" type="passenger"/>
    <trip id="92" depart="723.62" from="516948900#5" to="78628775#2" type="passenger"/>
    <trip id="93" depart="731.49" from="-788296726#1" to="218926711#5" type="passenger"/>
    <trip id="94" depart="739.35" from="619147726#0" to="176728955#2" type="passenger"/>
    <trip id="95" depart="747.22" from="176728955#0" to="628816136#2" type="passenger"/>
    <trip id="96" depart="755.08" from="913233121" to="919984684" type="passenger"/>
    <trip id="97" depart="762.95" from="1206223943" to="78628775#2" type="passenger"/>
    <trip id="98" depart="770.81" from="770860552#2" to="770860552#2" type="passenger"/>
    <trip id="99" depart="778.68" from="198691704#1" to="-770860548#1" type="passenger"/>
    <trip id="100" depart="786.54" from="585341909" to="796927124" type="passenger"/>
    <trip id="101" depart="794.41" from="615671503" to="-176728949" type="passenger"/>
    <trip id="102" depart="802.28" from="770860542#1" to="176728955#2" type="passenger"/>
    <trip id="103" depart="810.14" from="619147738#0" to="-770860552#1" type="passenger"/>
    <trip id="104" depart="818.01" from="615671500#1" to="1206223940" type="passenger"/>
    <trip id="105" depart="825.87" from="770860548#3" to="-628816136#0" type="passenger"/>
    <trip id="106" depart="833.74" from="218926711#5" to="1206223944" type="passenger"/>
    <trip id="107" depart="841.60" from="615671500#1" to="1206223940" type="passenger"/>
    <trip id="108" depart="849.47" from="218926711#6" to="-176728951" type="passenger"/>
    <trip id="109" depart="857.33" from="777881147#0" to="585341904#1" type="passenger"/>
    <trip id="110" depart="865.20" from="770860548#2" to="615671500#1" type="passenger"/>
    <trip id="111" depart="873.06" from="-770860548#1" to="-651818430#1" type="passenger"/>
    <trip id="112" depart="880.93" from="651818430#1" to="770860551" type="passenger"/>
    <trip id="113" depart="888.80" from="1206223939" to="-628816136#2" type="passenger"/>
    <trip id="114" depart="896.66" from="628816136#2" to="770860565#0" type="passenger"/>
    <trip id="115" depart="904.53" from="218926711#2" to="615671505#1" type="passenger"/>
    <trip id="116" depart="912.39" from="-770860548#2" to="78628775#0" type="passenger"/>
    <trip id="117" depart="920.26" from="770860551" to="788296726#1" type="passenger"/>
    <trip id="118" depart="928.12" from="651818430#3" to="770860565#0" type="passenger"/>
    <trip id="119" depart="935.99" from="-176728955#2" to="628816136#1" type="passenger"/>
    <trip id="120" depart="943.85" from="183272574#1" to="78628775#0" type="passenger"/>
    <trip id="121" depart="951.72" from="651818430#2" to="770860552#1" type="passenger"/>
    <trip id="122" depart="959.58" from="651818430#3" to="1206223943" type="passenger"/>
    <trip id="123" depart="967.45" from="770860552#1" to="770860551" type="passenger"/>
    <trip id="124" depart="975.32" from="-770860565#1" to="770860548#1" type="passenger"/>
    <trip id="125" depart="983.18" from="333557072#2" to="176728955#2" type="passenger"/>
    <trip id="126" depart="991.05" from="651818430#1" to="-770860565#1" type="passenger"/>
    <trip id="127" depart="998.91" from="-176728955#2" to="-770860551" type="passenger"/>
    <trip id="128" depart="1006.78" from="183272574#1" to="770860552#1" type="passenger"/>
    <trip id="129" depart="1014.64" from="788296726#0" to="1206223944" type="passenger"/>
    <trip id="130" depart="1022.51" from="615671500#1" to="218926711#5" type="passenger"/>
    <trip id="131" depart="1030.37" from="788296726#1" to="585341904#0" type="passenger"/>
    <trip id="132" depart="1038.24" from="78628775#4" to="1206223943" type="passenger"/>
    <trip id="133" depart="1046.10" from="-651818430#1" to="438360329#0" type="passenger"/>
    <trip id="134" depart="1053.97" from="619147738#1" to="183272574#1" type="passenger"/>
    <trip id="135" depart="1061.84" from="585341908#1" to="585341901#3" type="passenger"/>
    <trip id="136" depart="1069.70" from="218926711#0" to="615671500#0" type="passenger"/>
    <trip id="137" depart="1077.57" from="-176728955#0" to="78628775#0" type="passenger"/>
    <trip id="138" depart="1085.43" from="198566324#0" to="-516948900#5" type="passenger"/>
    <trip id="139" depart="1093.30" from="176728955#0" to="770860549" type="passenger"/>
    <trip id="140" depart="1101.16" from="619147738#0" to="176728955#2" type="passenger"/>
    <trip id="141" depart="1109.03" from="176728955#0" to="218926711#6" type="passenger"/>
    <trip id="142" depart="1116.89" from="218926711#2" to="176728955#1" type="passenger"/>
    <trip id="143" depart="1124.76" from="-651818430#3" to="333557072#2" type="passenger"/>
    <trip id="144" depart="1132.62" from="78628775#0" to="619147736" type="passenger"/>
    <trip id="145" depart="1140.49" from="777881147#0" to="615671505#1" type="passenger"/>
    <trip id="146" depart="1148.36" from="-176728955#0" to="176728955#0" type="passenger"/>
    <trip id="147" depart="1156.22" from="218926711#6" to="615671500#0" type="passenger"/>
    <trip id="148" depart="1164.09" from="289213613#3" to="-770860565#0" type="passenger"/>
    <trip id="149" depart="1171.95" from="651818430#1" to="-770860548#2" type="passenger"/>
    <trip id="150" depart="1179.82" from="-628816140#1" to="585341902" type="passenger"/>
    <trip id="151" depart="1187.68" from="615671500#0" to="183272713#1" type="passenger"/>
    <trip id="152" depart="1195.55" from="770860542#1" to="628816136#2" type="passenger"/>
    <trip id="153" depart="1203.41" from="619147726#0" to="-770860565#1" type="passenger"/>
    <trip id="154" depart="1211.28" from="1206223939" to="516948900#5" type="passenger"/>
    <trip id="155" depart="1219.14" from="770860548#3" to="-516948900#5" type="passenger"/>
    <trip id="156" depart="1227.01" from="218926711#4" to="619147726#0" type="passenger"/>
    <trip id="157" depart="1234.88" from="-770860552#1" to="619147738#1" type="passenger"/>
    <trip id="158" depart="1242.74" from="516948900#2" to="-788296726#1" type="passenger"/>
    <trip id="159" depart="1250.61" from="615671503" to="-176728949" type="passenger"/>
    <trip id="160" depart="1258.47" from="-770860549" to="78628775#5" type="passenger"/>
    <trip id="161" depart="1266.34" from="516948900#5" to="-516948900#2" type="passenger"/>
    <trip id="162" depart="1274.20" from="1206223939" to="770860549" type="passenger"/>
    <trip id="163" depart="1282.07" from="333557072#0" to="651818430#3" type="passenger"/>
    <trip id="164" depart="1289.93" from="619147726#0" to="796927124" type="passenger"/>
    <trip id="165" depart="1297.80" from="585341908#0" to="78628775#4" type="passenger"/>
    <trip id="166" depart="1305.66" from="770860565#0" to="615671505#0" type="passenger"/>
    <trip id="167" depart="1313.53" from="619147738#0" to="585341901#3" type="passenger"/>
    <trip id="168" depart="1321.40" from="438360329#0" to="1206223940" type="passenger"/>
    <trip id="169" depart="1329.26" from="1206223939" to="619147726#1" type="passenger"/>
    <trip id="170" depart="1337.13" from="628816136#0" to="585341902" type="passenger"/>
    <trip id="171" depart="1344.99" from="615671500#0" to="1206223944" type="passenger"/>
    <trip id="172" depart="1352.86" from="585341901#1" to="-651818430#3" type="passenger"/>
    <trip id="173" depart="1360.72" from="-788296726#0" to="619147738#1" type="passenger"/>
    <trip id="174" depart="1368.59" from="619147736" to="-516948900#4" type="passenger"/>
    <trip id="175" depart="1376.45" from="218926711#2" to="585341904#1" type="passenger"/>
    <trip id="176" depart="1384.32" from="218926711#4" to="-770860552#2" type="passenger"/>
    <trip id="177" depart="1392.18" from="585341904#1" to="619147738#1" type="passenger"/>
    <trip id="178" depart="1400.05" from="770860548#4" to="628816140#2" type="passenger"/>
    <trip id="179" depart="1407.92" from="198691704#2" to="-176728949" type="passenger"/>
    <trip id="180" depart="1415.78" from="183272713#1" to="628816140#1" type="passenger"/>
    <trip id="181" depart="1423.65" from="770860548#4" to="78628775#4" type="passenger"/>
    <trip id="182" depart="1431.51" from="218926711#5" to="628816136#2" type="passenger"/>
    <trip id="183" depart="1439.38" from="585341901#2" to="615671503" type="passenger"/>
    <trip id="184" depart="1447.24" from="-770860565#1" to="-770860565#0" type="passenger"/>
    <trip id="185" depart="1455.11" from="183272654" to="619147736" type="passenger"/>
    <trip id="186" depart="1462.97" from="218926711#2" to="-770860548#2" type="passenger"/>
    <trip id="187" depart="1470.84" from="438360329#0" to="-651818430#1" type="passenger"/>
    <trip id="188" depart="1478.70" from="-770860565#0" to="183272713#0" type="passenger"/>
    <trip id="189" depart="1486.57" from="628816136#0" to="218926711#2" type="passenger"/>
    <trip id="190" depart="1494.44" from="619342756" to="770860548#3" type="passenger"/>
    <trip id="191" depart="1502.30" from="1206223940" to="-516948900#8" type="passenger"/>
    <trip id="192" depart="1510.17" from="-176728955#2" to="585341904#1" type="passenger"/>
    <trip id="193" depart="1518.03" from="913233121" to="198691704#1" type="passenger"/>
    <trip id="194" depart="1525.90" from="615671503" to="651818430#1" type="passenger"/>
    <trip id="195" depart="1533.76" from="615671503" to="628816140#1" type="passenger"/>
    <trip id="196" depart="1541.63" from="78628775#2" to="-770860552#1" type="passenger"/>
    <trip id="197" depart="1549.49" from="-176728955#2" to="-770860542#1" type="passenger"/>
    <trip id="198" depart="1557.36" from="-651818430#3" to="619147730#3" type="passenger"/>
    <trip id="199" depart="1565.22" from="-770860548#4" to="615671505#0" type="passenger"/>
    <trip id="200" depart="1573.09" from="770860542#1" to="78628775#5" type="passenger"/>
    <trip id="201" depart="1580.96" from="176728955#0" to="619147736" type="passenger"/>
    <trip id="202" depart="1588.82" from="78628775#3" to="218926711#5" type="passenger"/>
    <trip id="203" depart="1596.69" from="619147737" to="-516948900#5" type="passenger"/>
    <trip id="204" depart="1604.55" from="619147727" to="619147726#0" type="passenger"/>
    <trip id="205" depart="1612.42" from="770860548#4" to="615671503" type="passenger"/>
    <trip id="206" depart="1620.28" from="-651818430#2" to="796927124" type="passenger"/>
    <trip id="207" depart="1628.15" from="628816136#2" to="198691704#1" type="passenger"/>
    <trip id="208" depart="1636.01" from="218926711#6" to="218926711#1" type="passenger"/>
    <trip id="209" depart="1643.88" from="516948900#3" to="183272713#1" type="passenger"/>
    <trip id="210" depart="1651.74" from="770860548#3" to="770860548#2" type="passenger"/>
    <trip id="211" depart="1659.61" from="615671500#1" to="770860548#2" type="passenger"/>
    <trip id="212" depart="1667.48" from="619147736" to="438360329#0" type="passenger"/>
    <trip id="213" depart="1675.34" from="585341901#1" to="516948900#8" type="passenger"/>
    <trip id="214" depart="1683.21" from="289213613#0" to="628816136#0" type="passenger"/>
    <trip id="215" depart="1691.07" from="770860548#1" to="-628816136#0" type="passenger"/>
    <trip id="216" depart="1698.94" from="770860552#2" to="-788296726#1" type="passenger"/>
    <trip id="217" depart="1706.80" from="333557072#2" to="615671505#0" type="passenger"/>
    <trip id="218" depart="1714.67" from="-770860565#0" to="651818430#3" type="passenger"/>
    <trip id="219" depart="1722.53" from="183272654" to="770860552#2" type="passenger"/>
    <trip id="220" depart="1730.40" from="619147736" to="1206223944" type="passenger"/>
    <trip id="221" depart="1738.26" from="-176728955#1" to="78628775#3" type="passenger"/>
    <trip id="222" depart="1746.13" from="516948900#0" to="628816140#1" type="passenger"/>
    <trip id="223" depart="1754.00" from="619147727" to="619147727" type="passenger"/>
    <trip id="224" depart="1761.86" from="516948900#0" to="651818430#2" type="passenger"/>
    <trip id="225" depart="1769.73" from="-628816140#2" to="-770860565#0" type="passenger"/>
    <trip id="226" depart="1777.59" from="585341904#0" to="516948900#5" type="passenger"/>
    <trip id="227" depart="1785.46" from="516948900#8" to="333557072#2" type="passenger"/>
    <trip id="228" depart="1793.32" from="619147736" to="1206223943" type="passenger"/>
    <trip id="229" depart="1801.19" from="1206223940" to="-651818430#1" type="passenger"/>
    <trip id="230" depart="1809.05" from="585341901#1" to="628816140#2" type="passenger"/>
    <trip id="231" depart="1816.92" from="-770860551" to="-770860565#0" type="passenger"/>
    <trip id="232" depart="1824.78" from="1206223945" to="-628816136#1" type="passenger"/>
    <trip id="233" depart="1832.65" from="-770860552#1" to="-770860565#1" type="passenger"/>
    <trip id="234" depart="1840.51" from="-770860549" to="-176728951" type="passenger"/>
    <trip id="235" depart="1848.38" from="585341901#1" to="1206223944" type="passenger"/>
    <trip id="236" depart="1856.25" from="770860552#1" to="585341901#1" type="passenger"/>
    <trip id="237" depart="1864.11" from="770860552#1" to="615671500#0" type="passenger"/>
    <trip id="238" depart="1871.98" from="438360329#0" to="438360329#1" type="passenger"/>
    <trip id="239" depart="1879.84" from="-770860551" to="-516948900#3" type="passenger"/>
    <trip id="240" depart="1887.71" from="78628775#0" to="516948900#5" type="passenger"/>
    <trip id="241" depart="1895.57" from="770860542#1" to="218926711#5" type="passenger"/>
    <trip id="242" depart="1903.44" from="628816136#0" to="615671503" type="passenger"/>
    <trip id="243" depart="1911.30" from="289213613#3" to="770860551" type="passenger"/>
    <trip id="244" depart="1919.17" from="796927124" to="176728955#2" type="passenger"/>
    <trip id="245" depart="1927.03" from="585341917" to="615671505#0" type="passenger"/>
    <trip id="246" depart="1934.90" from="-770860552#2" to="-770860552#2" type="passenger"/>
    <trip id="247" depart="1942.77" from="-770860548#4" to="-516948900#5" type="passenger"/>
    <trip id="248" depart="1950.63" from="585341908#0" to="176728955#1" type="passenger"/>
    <trip id="249" depart="1958.50" from="619147727" to="78628775#0" type="passenger"/>
    <trip id="250" depart="1966.36" from="218926711#6" to="585341904#1" type="passenger"/>
    <trip id="251" depart="1974.23" from="770860548#1" to="-516948900#5" type="passenger"/>
    <trip id="252" depart="1982.09" from="-770860548#3" to="176728955#2" type="passenger"/>
    <trip id="253" depart="1989.96" from="1206223947" to="-651818430#1" type="passenger"/>
    <trip id="254" depart="1997.82" from="619147727" to="619147738#1" type="passenger"/>
    <trip id="255" depart="2005.69" from="78628775#2" to="585341901#2" type="passenger"/>
    <trip id="256" depart="2013.55" from="516948900#2" to="-516948900#8" type="passenger"/>
    <trip id="257" depart="2021.42" from="176728955#1" to="1206223939" type="passenger"/>
    <trip id="258" depart="2029.29" from="-628816140#1" to="78628775#5" type="passenger"/>
    <trip id="259" depart="2037.15" from="770860548#2" to="615671500#0" type="passenger"/>
    <trip id="260" depart="2045.02" from="78628775#3" to="919984684" type="passenger"/>
    <trip id="261" depart="2052.88" from="619147726#0" to="1206223943" type="passenger"/>
    <trip id="262" depart="2060.75" from="438360329#0" to="619147728" type="passenger"/>
    <trip id="263" depart="2068.61" from="585341904#1" to="619147726#1" type="passenger"/>
    <trip id="264" depart="2076.48" from="516948900#2" to="-628816136#0" type="passenger"/>
    <trip id="265" depart="2084.34" from="183272713#0" to="183272713#0" type="passenger"/>
    <trip id="266" depart="2092.21" from="619147726#0" to="770860551" type="passenger"/>
    <trip id="267" depart="2100.07" from="183272574#1" to="619147738#1" type="passenger"/>
    <trip id="268" depart="2107.94" from="1206223947" to="78628775#3" type="passenger"/>
    <trip id="269" depart="2115.81" from="333557072#0" to="183272574#1" type="passenger"/>
    <trip id="270" depart="2123.67" from="176728955#1" to="788296726#0" type="passenger"/>
    <trip id="271" depart="2131.54" from="218926711#2" to="585341902" type="passenger"/>
    <trip id="272" depart="2139.40" from="796927124" to="619147728" type="passenger"/>
    <trip id="273" depart="2147.27" from="-770860551" to="218926711#0" type="passenger"/>
    <trip id="274" depart="2155.13" from="619342756" to="619147726#0" type="passenger"/>
    <trip id="275" depart="2163.00" from="628816136#0" to="-770860552#1" type="passenger"/>
    <trip id="276" depart="2170.86" from="585341901#2" to="78628775#0" type="passenger"/>
    <trip id="277" depart="2178.73" from="289213613#0" to="619147738#1" type="passenger"/>
    <trip id="278" depart="2186.59" from="-651818430#2" to="788296726#0" type="passenger"/>
    <trip id="279" depart="2194.46" from="585341909" to="-788296726#0" type="passenger"/>
    <trip id="280" depart="2202.33" from="585341901#3" to="-628816136#0" type="passenger"/>
    <trip id="281" depart="2210.19" from="770860548#1" to="585341901#2" type="passenger"/>
    <trip id="282" depart="2218.06" from="619147737" to="585341901#3" type="passenger"/>
    <trip id="283" depart="2225.92" from="788296726#1" to="-788296726#1" type="passenger"/>
    <trip id="284" depart="2233.79" from="585341901#3" to="218926711#2" type="passenger"/>
    <trip id="285" depart="2241.65" from="777881147#2" to="585341901#3" type="passenger"/>
    <trip id="286" depart="2249.52" from="770860552#2" to="770860552#1" type="passenger"/>
    <trip id="287" depart="2257.38" from="1206223945" to="651818430#2" type="passenger"/>
    <trip id="288" depart="2265.25" from="218926711#4" to="78628775#2" type="passenger"/>
    <trip id="289" depart="2273.11" from="516948900#3" to="770860548#2" type="passenger"/>
    <trip id="290" depart="2280.98" from="1206223945" to="176728955#1" type="passenger"/>
    <trip id="291" depart="2288.85" from="585341904#1" to="919984684" type="passenger"/>
    <trip id="292" depart="2296.71" from="516948900#0" to="-770860542#1" type="passenger"/>
    <trip id="293" depart="2304.58" from="585341901#1" to="198691704#1" type="passenger"/>
    <trip id="294" depart="2312.44" from="585341901#3" to="585341904#1" type="passenger"/>
    <trip id="295" depart="2320.31" from="333557072#0" to="183272654" type="passenger"/>
    <trip id="296" depart="2328.17" from="-770860551" to="619147738#1" type="passenger"/>
    <trip id="297" depart="2336.04" from="628816136#2" to="-516948900#2" type="passenger"/>
    <trip id="298" depart="2343.90" from="619147739#1" to="619147739#1" type="passenger"/>
    <trip id="299" depart="2351.77" from="651818430#3" to="218926711#4" type="passenger"/>
    <trip id="300" depart="2359.63" from="788296726#1" to="585341901#1" type="passenger"/>
    <trip id="301" depart="2367.50" from="585341904#1" to="770860552#1" type="passenger"/>
    <trip id="302" depart="2375.37" from="770860552#1" to="438360329#1" type="passenger"/>
    <trip id="303" depart="2383.23" from="619147738#0" to="218926711#6" type="passenger"/>
    <trip id="304" depart="2391.10" from="615671503" to="-770860548#1" type="passenger"/>
    <trip id="305" depart="2398.96" from="438360329#0" to="788296726#0" type="passenger"/>
    <trip id="306" depart="2406.83" from="183272654" to="619147738#1" type="passenger"/>
    <trip id="307" depart="2414.69" from="615671502" to="770860549" type="passenger"/>
    <trip id="308" depart="2422.56" from="770860548#4" to="770860551" type="passenger"/>
    <trip id="309" depart="2430.42" from="198691704#2" to="183272654" type="passenger"/>
    <trip id="310" depart="2438.29" from="619147738#0" to="628816140#1" type="passenger"/>
    <trip id="311" depart="2446.15" from="770860552#1" to="-516948900#0" type="passenger"/>
    <trip id="312" depart="2454.02" from="777881147#2" to="919984684" type="passenger"/>
    <trip id="313" depart="2461.89" from="-628816140#2" to="619147726#1" type="passenger"/>
    <trip id="314" depart="2469.75" from="770860552#1" to="438360329#1" type="passenger"/>
    <trip id="315" depart="2477.62" from="176728949" to="218926711#1" type="passenger"/>
    <trip id="316" depart="2485.48" from="-770860548#1" to="585341904#0" type="passenger"/>
    <trip id="317" depart="2493.35" from="-770860548#4" to="-516948900#8" type="passenger"/>
    <trip id="318" depart="2501.21" from="770860552#1" to="615671505#1" type="passenger"/>
    <trip id="319" depart="2509.08" from="1206223940" to="1206223939" type="passenger"/>
    <trip id="320" depart="2516.94" from="-176728955#1" to="770860542#1" type="passenger"/>
    <trip id="321" depart="2524.81" from="777881147#0" to="619147736" type="passenger"/>
    <trip id="322" depart="2532.67" from="-770860548#2" to="438360329#1" type="passenger"/>
    <trip id="323" depart="2540.54" from="183272713#0" to="615671500#1" type="passenger"/>