<?xml version="1.0" encoding="UTF-8"?>

<!-- generated on 2026-04-15 03:10:54.938085 by Eclipse SUMO randomTrips.py v1.26.0
<configuration>
    <net-file value="/Users/junlee/Desktop/2026-1/js/result/report_top12_seed4_2h/sumo_nets/cw_5831/network.net.xml"/>
    <output-trip-file value="/Users/junlee/Desktop/2026-1/js/result/report_top12_seed4_2h/sumo_nets/cw_5831/routes_seed42.trips.xml"/>
    <route-file value="/Users/junlee/Desktop/2026-1/js/result/report_top12_seed4_2h/sumo_nets/cw_5831/routes_seed42.rou.xml"/>
    <vehicle-class value="passenger"/>
    <end value="7200.0"/>
    <period value="7.865448464886305"/>
</configuration>
-->

<!-- generated on 2026-04-15T03:10:54.914308+09:00 by Eclipse SUMO duarouter 1.26.0
<duarouterConfiguration xmlns:xsi="http://www.w3.org/2001/XMLSchema-instance" xsi:noNamespaceSchemaLocation="http://sumo.dlr.de/xsd/duarouterConfiguration.xsd">

    <input>
        <net-file value="/Users/junlee/Desktop/2026-1/js/result/report_top12_seed4_2h/sumo_nets/cw_5831/network.net.xml"/>
        <route-files value="/Users/junlee/Desktop/2026-1/js/result/report_top12_seed4_2h/sumo_nets/cw_5831/routes_seed42.trips.xml"/>
    </input>

    <output>
        <output-file value="/Users/junlee/Desktop/2026-1/js/result/report_top12_seed4_2h/sumo_nets/cw_5831/routes_seed42.rou.xml"/>
        <alternatives-output value="NUL"/>
    </output>

    <time>
        <begin value="0.0"/>
        <end value="7200.0"/>
    </time>

    <report>
        <no-warnings value="true"/>
        <ignore-errors value="true"/>
        <no-step-log value="true"/>
    </report>

</duarouterConfiguration>
-->

<routes xmlns:xsi="http://www.w3.org/2001/XMLSchema-instance" xsi:noNamespaceSchemaLocation="http://sumo.dlr.de/xsd/routes_file.xsd">
    <vType id="passenger" vClass="passenger"/>
    <vehicle id="0" type="passenger" depart="0.00">
        <route edges="1206223945 615671502 796927124 1206223943 1206223940 218926711#0 218926711#1 218926711#2 218926711#4 218926711#5 218926711#6 619147726#0 78628775#0 78628775#2 78628775#3 78628775#4 -770860565#1"/>
    </vehicle>
    <vehicle id="1" type="passenger" depart="7.87">
        <route edges="-770860565#1 -770860565#0 770860548#3 770860548#4 333557072#2 619147738#0 619147738#1 1206223939 615671502 183272654 615671500#0 615671500#1 628816136#0 628816136#1 628816136#2 585341901#3"/>
    </vehicle>
    <vehicle id="2" type="passenger" depart="15.73">
        <route edges="615671502 183272654 615671500#0 615671500#1 628816136#0 628816136#1 628816136#2 585341901#3 585341904#0 585341904#1"/>
    </vehicle>
    <vehicle id="3" type="passenger" depart="23.60">
        <route edges="-770860565#1 -770860565#0 770860548#3 770860548#4 333557072#2 619147738#0 619147738#1 1206223939 615671502 183272654 615671500#0 615671500#1"/>
    </vehicle>
    <vehicle id="4" type="passenger" depart="31.46">
        <route edges="651818430#3 333557072#2 619147738#0 619147738#1 615671503 218926711#0 218926711#1 218926711#2 218926711#4 218926711#5 218926711#6 619147727 176728955#0 176728955#1 183272713#0 183272713#1 -516948900#8 -516948900#5 -516948900#4 -176728949"/>
    </vehicle>
    <vehicle id="5" type="passenger" depart="39.33">
        <route edges="651818430#2 651818430#3 333557072#2 619147738#0 619147738#1"/>
    </vehicle>
    <vehicle id="6" type="passenger" depart="47.19">
        <route edges="183272654 615671500#0 615671500#1 628816136#0 628816136#1 628816136#2 585341901#3 585341904#0 585341904#1 796927124 1206223943 1206223940 218926711#0 218926711#1 218926711#2 218926711#4 218926711#5 218926711#6 619147726#0 78628775#0 78628775#2 -788296726#1 -788296726#0 770860551 -770860548#1"/>
    </vehicle>
    <vehicle id="7" type="passenger" depart="55.06">
        <route edges="78628775#3 78628775#4 -770860565#1 -770860565#0 -770860548#2 -770860548#1 218926711#4 218926711#5 218926711#6 619147727 176728955#0 176728955#1 183272713#0 183272713#1"/>
    </vehicle>
    <vehicle id="8" type="passenger" depart="62.92">
        <route edges="-628816140#2 -628816140#1 198691704#2 585341901#1 585341901#2 -628816136#2 -628816136#1"/>
    </vehicle>
    <vehicle id="9" type="passenger" depart="70.79">
        <route edges="770860548#3 770860548#4 333557072#2 619147738#0 619147738#1 615671503"/>
    </vehicle>
    <vehicle id="10" type="passenger" depart="78.65">
        <route edges="651818430#2 651818430#3 333557072#2 619147738#0 619147738#1 1206223939 615671502 183272654 615671500#0 615671500#1 628816136#0"/>
    </vehicle>
    <vehicle id="11" type="passenger" depart="86.52">
        <route edges="585341901#1 585341901#2 585341901#3 585341904#0 585341904#1 796927124 1206223943 1206223940 218926711#0 218926711#1 218926711#2 770860548#1 -770860551 788296726#0"/>
    </vehicle>
    <vehicle id="12" type="passenger" depart="94.39">
        <route edges="770860548#1 770860548#2 770860548#3 770860548#4 333557072#2 619147738#0 619147738#1 1206223939 615671502 796927124 1206223944 615671505#0 615671505#1"/>
    </vehicle>
    <vehicle id="13" type="passenger" depart="102.25">
        <route edges="770860551 770860548#2 770860548#3 770860548#4 333557072#2 619147738#0 619147738#1 1206223939 615671502 183272654 615671500#0"/>
    </vehicle>
    <vehicle id="14" type="passenger" depart="110.12">
        <route edges="619147736 585341901#1 585341901#2 585341901#3 585341904#0 585341904#1 796927124 1206223943 1206223940 218926711#0 218926711#1 218926711#2 218926711#4 218926711#5 218926711#6 619147727 176728955#0 176728955#1 183272713#0 183272713#1 -516948900#8 -516948900#5 -516948900#4 -516948900#3 -516948900#2"/>
    </vehicle>
    <vehicle id="15" type="passenger" depart="117.98">
        <route edges="-788296726#0 770860551 -770860548#1 218926711#4 218926711#5 218926711#6 619147727 176728955#0"/>
    </vehicle>
    <vehicle id="16" type="passenger" depart="125.85">
        <route edges="615671500#1 628816136#0 628816136#1 628816136#2 585341901#3 585341904#0 585341904#1 796927124 1206223943 1206223940 218926711#0"/>
    </vehicle>
    <vehicle id="17" type="passenger" depart="133.71">
        <route edges="198691704#1 198691704#2 585341901#1 585341901#2 585341901#3 585341904#0 585341904#1 796927124 1206223943 1206223940 218926711#0 218926711#1 218926711#2 770860548#1 770860548#2 770860565#0 -770860552#2"/>
    </vehicle>
    <vehicle id="18" type="passenger" depart="141.58">
        <route edges="615671502 796927124 1206223944 615671505#0"/>
    </vehicle>
    <vehicle id="19" type="passenger" depart="149.44">
        <route edges="-770860548#4 -770860548#3 -770860548#2 -770860548#1 218926711#4 218926711#5 218926711#6 619147727 176728955#0 176728955#1 183272713#0 183272713#1 619147736 585341901#1 585341901#2 585341901#3 585341909 615671500#0 615671500#1 628816136#0"/>
    </vehicle>
    <vehicle id="20" type="passenger" depart="157.31">
        <route edges="-770860548#3 770860565#0 -770860552#2 -770860552#1 770860551 770860548#2 770860548#3 770860548#4 333557072#2 619147738#0 619147738#1 615671503 218926711#0 218926711#1 218926711#2"/>
    </vehicle>
    <vehicle id="21" type="passenger" depart="165.17">
        <route edges="796927124 1206223943 1206223940 218926711#0 218926711#1 218926711#2 218926711#4 218926711#5 218926711#6 619147726#0 619147726#1"/>
    </vehicle>
    <vehicle id="22" type="passenger" depart="173.04">
        <route edges="585341901#3 585341904#0 585341904#1 796927124 1206223943 1206223940 218926711#0 218926711#1 651818430#1 651818430#2 651818430#3 333557072#2 619147738#0"/>
    </vehicle>
    <vehicle id="23" type="passenger" depart="180.91">
        <route edges="176728955#0 176728955#1 183272713#0 183272713#1 619147736 585341901#1 585341901#2 585341901#3 585341904#0 585341904#1 796927124 1206223943"/>
    </vehicle>
    <vehicle id="24" type="passenger" depart="188.77">
        <route edges="-770860565#0 -770860548#2 -770860551 788296726#0 788296726#1 78628775#3"/>
    </vehicle>
    <vehicle id="25" type="passenger" depart="196.64">
        <route edges="770860552#2 -770860565#0 -770860548#2 -770860548#1 218926711#4 218926711#5 218926711#6 619147727 176728955#0 176728955#1 183272713#0 183272713#1 438360329#0 438360329#1 183272574#1"/>
    </vehicle>
    <vehicle id="26" type="passenger" depart="204.50">
        <route edges="615671503 218926711#0 218926711#1 218926711#2 218926711#4 218926711#5"/>
    </vehicle>
    <vehicle id="27" type="passenger" depart="212.37">
        <route edges="1206223943 1206223940 218926711#0 218926711#1 218926711#2 218926711#4 218926711#5 218926711#6 619147726#0 78628775#0 78628775#2 -788296726#1"/>
    </vehicle>
    <vehicle id="28" type="passenger" depart="220.23">
        <route edges="218926711#1 218926711#2 770860548#1 -770860551 770860552#1 770860552#2 -770860565#0"/>
    </vehicle>
    <vehicle id="29" type="passenger" depart="228.10">
        <route edges="913233121 516948900#3 516948900#4 516948900#5 198691704#1 198691704#2 585341901#1 585341901#2 585341901#3"/>
    </vehicle>
    <vehicle id="30" type="passenger" depart="235.96">
        <route edges="-628816140#1 198691704#2 585341901#1 585341901#2 585341901#3 585341904#0 585341904#1 796927124 1206223943 1206223940 218926711#0 218926711#1 218926711#2 218926711#4 218926711#5 218926711#6 619147727 176728955#0 176728955#1 183272713#0 183272713#1 -516948900#8 -516948900#5 -516948900#4 -516948900#3 -516948900#2"/>
    </vehicle>
    <vehicle id="31" type="passenger" depart="243.83">
        <route edges="-651818430#1 218926711#2 218926711#4 218926711#5 218926711#6 619147726#0"/>
    </vehicle>
    <vehicle id="32" type="passenger" depart="251.69">
        <route edges="651818430#1 651818430#2 651818430#3 333557072#2"/>
    </vehicle>
    <vehicle id="33" type="passenger" depart="259.56">
        <route edges="-516948900#8 198691704#1 198691704#2 585341901#1 585341901#2 585341901#3 585341904#0 585341904#1 796927124 1206223943 1206223940 218926711#0 218926711#1 218926711#2"/>
    </vehicle>
    <vehicle id="34" type="passenger" depart="267.43">
        <route edges="788296726#0 788296726#1 78628775#3 78628775#4 -770860565#1 -770860552#2 -770860552#1 770860551"/>
    </vehicle>
    <vehicle id="35" type="passenger" depart="275.29">
        <route edges="-651818430#1 218926711#2 218926711#4 218926711#5 218926711#6 619147727 176728955#0 176728955#1 183272713#0 183272713#1 438360329#0"/>
    </vehicle>
    <vehicle id="36" type="passenger" depart="283.16">
        <route edges="333557072#0 -770860548#4 -770860548#3 -770860548#2 -770860551 788296726#0 788296726#1 78628775#3 78628775#4"/>
    </vehicle>
    <vehicle id="37" type="passenger" depart="291.02">
        <route edges="770860552#2 -770860565#0 770860548#3 770860548#4 333557072#2 619147738#0 619147738#1 1206223939 615671502 796927124 1206223943 1206223940"/>
    </vehicle>
    <vehicle id="38" type="passenger" depart="298.89">
        <route edges="777881147#1 777881147#2 777881147#4 619342756 585341917 619147736 585341901#1 585341901#2 585341901#3 585341904#0 585341904#1 796927124 1206223943 1206223940 218926711#0 218926711#1 218926711#2 770860548#1 -770860551 770860552#1"/>
    </vehicle>
    <vehicle id="39" type="passenger" depart="306.75">
        <route edges="176728949 516948900#4 516948900#5 198691704#1 198691704#2 585341901#1 585341901#2 585341901#3 585341904#0 585341904#1 796927124 1206223943 1206223940 218926711#0 218926711#1 218926711#2 218926711#4 218926711#5 218926711#6 619147726#0 619147726#1"/>
    </vehicle>
    <vehicle id="40" type="passenger" depart="314.62">
        <route edges="585341909 615671500#0 615671500#1 628816136#0 628816136#1 628816136#2 585341901#3 585341904#0 585341904#1 796927124 1206223943 1206223940 218926711#0 218926711#1 651818430#1 -770860542#1"/>
    </vehicle>
    <vehicle id="41" type="passenger" depart="322.48">
        <route edges="628816136#0 628816136#1 628816136#2 585341901#3 585341904#0 585341904#1"/>
    </vehicle>
    <vehicle id="42" type="passenger" depart="330.35">
        <route edges="628816136#2 585341901#3 585341904#0"/>
    </vehicle>
    <vehicle id="43" type="passenger" depart="338.21">
        <route edges="-176728955#0 585341917 619147736 585341901#1 585341901#2 585341901#3 585341904#0 585341904#1 796927124 1206223943 1206223940 218926711#0 218926711#1 651818430#1 651818430#2 651818430#3 333557072#2 619147738#0 619147738#1 1206223939 615671502 183272654"/>
    </vehicle>
    <vehicle id="44" type="passenger" depart="346.08">
        <route edges="-176728955#2 183272713#0 183272713#1 619147736 585341901#1 585341901#2 585341901#3 585341904#0 585341904#1 796927124 1206223943 1206223940 218926711#0 218926711#1 218926711#2 218926711#4 218926711#5 218926711#6 619147726#0 78628775#0"/>
    </vehicle>
    <vehicle id="45" type="passenger" depart="353.95">
        <route edges="770860552#2 -770860565#0 770860548#3"/>
    </vehicle>
    <vehicle id="46" type="passenger" depart="361.81">
        <route edges="176728951 183272574#1 -516948900#4 -516948900#3"/>
    </vehicle>
    <vehicle id="47" type="passenger" depart="369.68">
        <route edges="770860552#2 -770860565#0 -770860548#2 -770860551 788296726#0 788296726#1 78628775#3"/>
    </vehicle>
    <vehicle id="48" type="passenger" depart="377.54">
        <route edges="-628816140#1 198691704#2 585341901#1 585341901#2 585341901#3 585341904#0 585341904#1 796927124 1206223943 1206223940 218926711#0 218926711#1 218926711#2 218926711#4 218926711#5 218926711#6 619147727 176728955#0 176728955#1 183272713#0 183272713#1 438360329#0 438360329#1 183272574#1 516948900#5 516948900#8"/>
    </vehicle>
    <vehicle id="49" type="passenger" depart="385.41">
        <route edges="628816136#0 628816136#1 628816136#2 585341901#3 585341904#0 585341904#1 796927124 1206223943 1206223940 218926711#0 218926711#1 218926711#2 770860548#1 770860548#2 770860548#3 770860548#4 -651818430#3 -651818430#2"/>
    </vehicle>
    <vehicle id="50" type="passenger" depart="393.27">
        <route edges="1206223943 1206223940 218926711#0 218926711#1 218926711#2 770860548#1 -770860551 770860552#1 770860552#2"/>
    </vehicle>
    <vehicle id="51" type="passenger" depart="401.14">
        <route edges="218926711#5 218926711#6 619147726#0 78628775#0 78628775#2 78628775#3 78628775#4 -770860565#1 -770860552#2"/>
    </vehicle>
    <vehicle id="52" type="passenger" depart="409.00">
        <route edges="585341901#1 585341901#2 585341901#3 585341909 615671500#0 615671500#1 628816136#0"/>
    </vehicle>
    <vehicle id="53" type="passenger" depart="416.87">
        <route edges="-770860552#2 -770860552#1 770860551 -770860548#1 218926711#4 218926711#5 218926711#6 619147727 176728955#0 176728955#1 183272713#0 183272713#1 438360329#0 438360329#1 183272574#1"/>
    </vehicle>
    <vehicle id="54" type="passenger" depart="424.73">
        <route edges="913233121 516948900#3 516948900#4 516948900#5 198691704#1 198691704#2 585341901#1 585341901#2 585341901#3 585341904#0 585341904#1 796927124 1206223943 1206223940 218926711#0 218926711#1 218926711#2 218926711#4 218926711#5 218926711#6 619147726#0 619147726#1 619147728"/>
    </vehicle>
    <vehicle id="55" type="passenger" depart="432.60">
        <route edges="289213613#0 289213613#3 619342756 585341917 619147736 585341901#1 585341901#2 585341901#3 585341904#0 585341904#1 796927124 1206223944 585341902"/>
    </vehicle>
    <vehicle id="56" type="passenger" depart="440.47">
        <route edges="-651818430#2 -651818430#1 218926711#2 218926711#4 218926711#5 218926711#6 619147726#0 78628775#0 78628775#2 78628775#3 78628775#4 -770860565#1"/>
    </vehicle>
    <vehicle id="57" type="passenger" depart="448.33">
        <route edges="183272654 615671500#0 615671500#1"/>
    </vehicle>
    <vehicle id="58" type="passenger" depart="456.20">
        <route edges="-788296726#0 770860552#1 770860552#2 -770860565#0"/>
    </vehicle>
    <vehicle id="59" type="passenger" depart="464.06">
        <route edges="770860551 -770860548#1 218926711#4 218926711#5 218926711#6 619147727 176728955#0 176728955#1 183272713#0 183272713#1 -516948900#8 -516948900#5"/>
    </vehicle>
    <vehicle id="60" type="passenger" depart="471.93">
        <route edges="-788296726#1 -788296726#0 770860551 -770860548#1 218926711#4 218926711#5 218926711#6 619147726#0 619147726#1 619147730#0 619147730#3"/>
    </vehicle>
    <vehicle id="61" type="passenger" depart="479.79">
        <route edges="-770860565#0 770860548#3 770860548#4 -651818430#3 -651818430#2"/>
    </vehicle>
    <vehicle id="62" type="passenger" depart="487.66">
        <route edges="438360329#0 438360329#1 183272574#1 516948900#5 198691704#1 198691704#2 585341901#1 585341901#2 585341901#3 585341904#0 585341904#1 796927124 1206223943 1206223940 218926711#0 218926711#1 651818430#1"/>
    </vehicle>
    <vehicle id="63" type="passenger" depart="495.52">
        <route edges="651818430#2 651818430#3 333557072#2 619147738#0 619147738#1 615671503 218926711#0 218926711#1 218926711#2 770860548#1 -770860551"/>
    </vehicle>
    <vehicle id="64" type="passenger" depart="503.39">
        <route edges="-628816140#2 -628816140#1 198691704#2 585341901#1 585341901#2 585341901#3 585341904#0 585341904#1 796927124 1206223943 1206223940 218926711#0 218926711#1 218926711#2 218926711#4 218926711#5 218926711#6 619147727 176728955#0 176728955#1 183272713#0 183272713#1 438360329#0"/>
    </vehicle>
    <vehicle id="65" type="passenger" depart="511.25">
        <route edges="619147738#1 615671503 218926711#0 218926711#1 218926711#2 218926711#4 218926711#5 218926711#6 619147726#0 619147726#1 619147730#0 619147730#3"/>
    </vehicle>
    <vehicle id="66" type="passenger" depart="519.12">
        <route edges="796927124 1206223943 1206223940 218926711#0 218926711#1 218926711#2 218926711#4 218926711#5 218926711#6 619147727 176728955#0 176728955#1 183272713#0 183272713#1 619147736 585341901#1 585341901#2 -628816136#2 -628816136#1"/>
    </vehicle>
    <vehicle id="67" type="passenger" depart="526.99">
        <route edges="218926711#2 218926711#4 218926711#5 218926711#6 619147727 176728955#0 176728955#1 183272713#0 183272713#1"/>
    </vehicle>
    <vehicle id="68" type="passenger" depart="534.85">
        <route edges="770860551 770860548#2 770860548#3 770860548#4 333557072#2 619147738#0 619147738#1 1206223939"/>
    </vehicle>
    <vehicle id="69" type="passenger" depart="542.72">
        <route edges="218926711#5 218926711#6 619147727 176728955#0 176728955#1 183272713#0 183272713#1 619147736 585341901#1 585341901#2 585341901#3 585341904#0 585341904#1 796927124 1206223944"/>
    </vehicle>
    <vehicle id="70" type="passenger" depart="550.58">
        <route edges="1206223939 615671502 796927124 1206223943 1206223940 218926711#0 218926711#1 218926711#2 218926711#4 218926711#5 218926711#6 619147726#0 78628775#0"/>
    </vehicle>
    <vehicle id="71" type="passenger" depart="558.45">
        <route edges="289213613#3 619342756 585341917 619147736 585341901#1 585341901#2 585341901#3 585341904#0 585341904#1 796927124 1206223943 1206223940 218926711#0 218926711#1 218926711#2 218926711#4 218926711#5 218926711#6 619147726#0 78628775#0 78628775#2 -788296726#1 -788296726#0 770860551"/>
    </vehicle>
    <vehicle id="72" type="passenger" depart="566.31">
        <route edges="585341901#3 585341904#0 585341904#1 796927124 1206223943 1206223940 218926711#0 218926711#1 218926711#2 218926711#4 218926711#5 218926711#6 619147727 176728955#0 176728955#1 183272713#0 183272713#1 -516948900#8 -516948900#5 -516948900#4 -516948900#3 -516948900#2"/>
    </vehicle>
    <vehicle id="73" type="passenger" depart="574.18">
        <route edges="913233121 516948900#3 516948900#4 516948900#5 198691704#1 198691704#2 585341901#1 585341901#2 585341901#3 585341904#0 585341904#1 796927124 1206223943 1206223940 218926711#0 218926711#1 218926711#2 770860548#1 770860548#2 770860548#3"/>
    </vehicle>
    <vehicle id="74" type="passenger" depart="582.04">
        <route edges="788296726#0 788296726#1 78628775#3 78628775#4 -770860565#1 -770860565#0 -770860548#2 -770860548#1 218926711#4 218926711#5 218926711#6 619147726#0 78628775#0"/>
    </vehicle>
    <vehicle id="75" type="passenger" depart="589.91">
        <route edges="770860548#3 770860548#4 333557072#2 619147738#0 619147738#1 615671503 218926711#0 218926711#1 218926711#2 770860548#1 -770860551 770860552#1 770860552#2 -770860565#0 -770860548#2"/>
    </vehicle>
    <vehicle id="76" type="passenger" depart="597.77">
        <route edges="516948900#0 516948900#2 516948900#3 516948900#4 516948900#5 198691704#1 198691704#2 585341901#1 585341901#2 585341901#3 585341904#0 585341904#1 796927124 1206223943 1206223940 218926711#0 218926711#1 218926711#2 770860548#1 -770860551 770860552#1 770860552#2 -770860565#0"/>
    </vehicle>
    <vehicle id="77" type="passenger" depart="605.64">
        <route edges="218926711#2 218926711#4 218926711#5 218926711#6 619147727 176728955#0 176728955#1 183272713#0 183272713#1 -516948900#8 -516948900#5 -516948900#4 -516948900#3"/>
    </vehicle>
    <vehicle id="78" type="passenger" depart="613.50">
        <route edges="198691704#2 585341901#1 585341901#2 585341901#3 585341904#0 585341904#1 796927124"/>
    </vehicle>
    <vehicle id="79" type="passenger" depart="621.37">
        <route edges="1206223943 1206223940 218926711#0 218926711#1 651818430#1"/>
    </vehicle>
    <vehicle id="80" type="passenger" depart="629.24">
        <route edges="333557072#0 333557072#2"/>
    </vehicle>
    <vehicle id="81" type="passenger" depart="637.10">
        <route edges="78628775#3 78628775#4 -770860565#1 -770860565#0 -770860548#2 -770860548#1 218926711#4 218926711#5 218926711#6 619147727 919984684"/>
    </vehicle>
    <vehicle id="82" type="passenger" depart="644.97">
        <route edges="-770860548#2 -770860548#1 218926711#4 218926711#5 218926711#6 619147727 176728955#0 176728955#1"/>
    </vehicle>
    <vehicle id="83" type="passenger" depart="652.83">
        <route edges="788296726#0 788296726#1 78628775#3 78628775#4 -770860565#1 -770860565#0 770860548#3 770860548#4 333557072#2 619147738#0 619147738#1 1206223939 615671502 183272654 615671500#0"/>
    </vehicle>
    <vehicle id="84" type="passenger" depart="660.70">
        <route edges="585341901#2 585341901#3 585341909 615671500#0 615671500#1 628816136#0 628816136#1 628816136#2"/>
    </vehicle>
    <vehicle id="85" type="passenger" depart="668.56">
        <route edges="516948900#3 516948900#4 516948900#5 198691704#1 198691704#2 585341901#1 585341901#2 585341901#3 585341904#0 585341904#1 796927124 1206223943 1206223940 218926711#0 218926711#1 218926711#2 770860548#1 770860548#2 770860548#3 770860549"/>
    </vehicle>
    <vehicle id="86" type="passenger" depart="676.43">
        <route edges="-770860548#2 -770860551 788296726#0 788296726#1 78628775#3 78628775#4 78628775#5"/>
    </vehicle>
    <vehicle id="87" type="passenger" depart="684.29">
        <route edges="585341908#0 585341908#1 1206223943 1206223940 218926711#0 218926711#1 218926711#2 218926711#4 218926711#5 218926711#6 619147726#0 619147726#1 619147730#0 619147730#3"/>
    </vehicle>
    <vehicle id="88" type="passenger" depart="692.16">
        <route edges="-788296726#1 -788296726#0 770860551 770860548#2 770860548#3 770860548#4 -651818430#3 -651818430#2 -651818430#1"/>
    </vehicle>
    <vehicle id="89" type="passenger" depart="700.02">
        <route edges="770860565#0 -770860552#2 -770860552#1 770860551 -770860548#1 218926711#4 218926711#5 218926711#6 619147726#0 78628775#0 78628775#2 -788296726#1"/>
    </vehicle>
    <vehicle id="90" type="passenger" depart="707.89">
        <route edges="585341908#0 585341908#1 1206223943 1206223940 218926711#0 218926711#1 651818430#1 651818430#2 651818430#3 333557072#2 619147738#0 619147738#1 1206223939 615671502 796927124 1206223944 615671505#0 615671505#1"/>
    </vehicle>
    <vehicle id="91" type="passenger" depart="715.76">
        <route edges="218926711#5 218926711#6 619147727 176728955#0 176728955#1 183272713#0 183272713#1 619147736 585341901#1 585341901#2 585341901#3 585341909 615671500#0 615671500#1"/>
    </vehicle>
    <vehicle id="92" type="passenger" depart="723.62">
        <route edges="516948900#5 198691704#1 198691704#2 585341901#1 585341901#2 585341901#3 585341904#0 585341904#1 796927124 1206223943 1206223940 218926711#0 218926711#1 218926711#2 218926711#4 218926711#5 218926711#6 619147726#0 78628775#0 78628775#2"/>
    </vehicle>
    <vehicle id="93" type="passenger" depart="731.49">
        <route edges="-788296726#1 -788296726#0 770860551 -770860548#1 218926711#4 218926711#5"/>
    </vehicle>
    <vehicle id="94" type="passenger" depart="739.35">
        <route edges="619147726#0 78628775#0 78628775#2 -788296726#1 -788296726#0 770860551 -770860548#1 218926711#4 218926711#5 218926711#6 619147727 176728955#0 176728955#1 176728955#2"/>
    </vehicle>
    <vehicle id="95" type="passenger" depart="747.22">
        <route edges="176728955#0 176728955#1 183272713#0 183272713#1 619147736 585341901#1 585341901#2 585341901#3 585341909 615671500#0 615671500#1 628816136#0 628816136#1 628816136#2"/>
    </vehicle>
    <vehicle id="96" type="passenger" depart="755.08">
        <route edges="913233121 516948900#3 516948900#4 516948900#5 198691704#1 198691704#2 585341901#1 585341901#2 585341901#3 585341904#0 585341904#1 796927124 1206223943 1206223940 218926711#0 218926711#1 218926711#2 218926711#4 218926711#5 218926711#6 619147727 919984684"/>
    </vehicle>
    <vehicle id="97" type="passenger" depart="762.95">
        <route edges="1206223943 1206223940 218926711#0 218926711#1 218926711#2 218926711#4 218926711#5 218926711#6 619147726#0 78628775#0 78628775#2"/>
    </vehicle>
    <vehicle id="98" type="passenger" depart="770.81">
        <route edges="770860552#2"/>
    </vehicle>
    <vehicle id="99" type="passenger" depart="778.68">
        <route edges="198691704#1 198691704#2 585341901#1 585341901#2 585341901#3 585341904#0 585341904#1 796927124 1206223943 1206223940 218926711#0 218926711#1 218926711#2 218926711#4 218926711#5 218926711#6 619147726#0 78628775#0 78628775#2 -788296726#1 -788296726#0 770860551 -770860548#1"/>
    </vehicle>
    <vehicle id="100" type="passenger" depart="786.54">
        <route edges="585341909 615671500#0 615671500#1 628816136#0 628816136#1 628816136#2 585341901#3 585341904#0 585341904#1 796927124"/>
    </vehicle>
    <vehicle id="101" type="passenger" depart="794.41">
        <route edges="615671503 218926711#0 218926711#1 218926711#2 218926711#4 218926711#5 218926711#6 619147727 176728955#0 176728955#1 183272713#0 183272713#1 -516948900#8 -516948900#5 -516948900#4 -176728949"/>
    </vehicle>
    <vehicle id="102" type="passenger" depart="802.28">
        <route edges="770860542#1 -651818430#1 218926711#2 218926711#4 218926711#5 218926711#6 619147727 176728955#0 176728955#1 176728955#2"/>
    </vehicle>
    <vehicle id="103" type="passenger" depart="810.14">
        <route edges="619147738#0 619147738#1 615671503 218926711#0 218926711#1 218926711#2 770860548#1 770860548#2 770860565#0 -770860552#2 -770860552#1"/>
    </vehicle>
    <vehicle id="104" type="passenger" depart="818.01">
        <route edges="615671500#1 628816136#0 628816136#1 628816136#2 585341901#3 585341904#0 585341904#1 796927124 1206223943 1206223940"/>
    </vehicle>
    <vehicle id="105" type="passenger" depart="825.87">
        <route edges="770860548#3 770860548#4 333557072#2 619147738#0 619147738#1 615671503 218926711#0 218926711#1 218926711#2 218926711#4 218926711#5 218926711#6 619147727 176728955#0 176728955#1 183272713#0 183272713#1 619147736 585341901#1 585341901#2 -628816136#2 -628816136#1 -628816136#0"/>
    </vehicle>
    <vehicle id="106" type="passenger" depart="833.74">
        <route edges="218926711#5 218926711#6 619147727 176728955#0 176728955#1 183272713#0 183272713#1 619147736 585341901#1 585341901#2 585341901#3 585341904#0 585341904#1 796927124 1206223944"/>
    </vehicle>
    <vehicle id="107" type="passenger" depart="841.60">
        <route edges="615671500#1 628816136#0 628816136#1 628816136#2 585341901#3 585341904#0 585341904#1 796927124 1206223943 1206223940"/>
    </vehicle>
    <vehicle id="108" type="passenger" depart="849.47">
        <route edges="218926711#6 619147727 176728955#0 176728955#1 183272713#0 183272713#1 438360329#0 438360329#1 -176728951"/>
    </vehicle>
    <vehicle id="109" type="passenger" depart="857.33">
        <route edges="777881147#0 777881147#1 777881147#2 777881147#4 619342756 585341917 619147736 585341901#1 585341901#2 585341901#3 585341904#0 585341904#1"/>
    </vehicle>
    <vehicle id="110" type="passenger" depart="865.20">
        <route edges="770860548#2 770860548#3 770860548#4 333557072#2 619147738#0 619147738#1 1206223939 615671502 183272654 615671500#0 615671500#1"/>
    </vehicle>
    <vehicle id="111" type="passenger" depart="873.06">
        <route edges="-770860548#1 218926711#4 218926711#5 218926711#6 619147726#0 78628775#0 78628775#2 78628775#3 78628775#4 -770860565#1 -770860565#0 770860548#3 770860548#4 -651818430#3 -651818430#2 -651818430#1"/>
    </vehicle>
    <vehicle id="112" type="passenger" depart="880.93">
        <route edges="651818430#1 -770860542#1 218926711#1 218926711#2 218926711#4 218926711#5 218926711#6 619147726#0 78628775#0 78628775#2 -788296726#1 -788296726#0 770860551"/>
    </vehicle>
    <vehicle id="113" type="passenger" depart="888.80">
        <route edges="1206223939 615671502 796927124 1206223943 1206223940 218926711#0 218926711#1 218926711#2 218926711#4 218926711#5 218926711#6 619147727 176728955#0 176728955#1 183272713#0 183272713#1 619147736 585341901#1 585341901#2 -628816136#2"/>
    </vehicle>
    <vehicle id="114" type="passenger" depart="896.66">
        <route edges="628816136#2 585341901#3 585341904#0 585341904#1 796927124 1206223943 1206223940 218926711#0 218926711#1 218926711#2 770860548#1 770860548#2 770860565#0"/>
    </vehicle>