<?xml version="1.0" encoding="UTF-8"?>

<!-- generated on 2026-04-15T00:09:42.098792+09:00 by Eclipse SUMO netconvert 1.26.0
<netconvertConfiguration xmlns:xsi="http://www.w3.org/2001/XMLSchema-instance" xsi:noNamespaceSchemaLocation="http://sumo.dlr.de/xsd/netconvertConfiguration.xsd">

    <input>
        <osm-files value="/Users/junlee/Desktop/2026-1/js/result/2026-04-15_00-06-49/sumo_nets/cw_6213/map.osm"/>
    </input>

    <output>
        <output-file value="/Users/junlee/Desktop/2026-1/js/result/2026-04-15_00-06-49/sumo_nets/cw_6213/network.net.xml"/>
    </output>

    <projection>
        <proj.utm value="true"/>
    </projection>

    <processing>
        <geometry.remove value="true"/>
        <roundabouts.guess value="true"/>
    </processing>

    <tls_building>
        <tls.guess value="true"/>
        <tls.guess-signals value="true"/>
    </tls_building>

    <ramp_guessing>
        <ramps.guess value="true"/>
    </ramp_guessing>

    <edge_removal>
        <keep-edges.by-vclass value="passenger,pedestrian"/>
    </edge_removal>

    <junctions>
        <no-turnarounds value="true"/>
        <junctions.join value="true"/>
    </junctions>

    <pedestrian>
        <sidewalks.guess value="true"/>
        <sidewalks.guess.max-speed value="13.89"/>
        <crossings.guess value="true"/>
    </pedestrian>

    <report>
        <verbose value="true"/>
    </report>

</netconvertConfiguration>
-->

<net version="1.20" junctionCornerDetail="5" walkingareas="true" limitTurnSpeed="5.50" xmlns:xsi="http://www.w3.org/2001/XMLSchema-instance" xsi:noNamespaceSchemaLocation="http://sumo.dlr.de/xsd/net_file.xsd">

    <location netOffset="-320494.20,-4157627.29" convBoundary="0.00,0.00,1264.80,1343.10" origBoundary="126.967779,37.548429,126.988830,37.561120" projParameter="+proj=utm +zone=52 +ellps=WGS84 +datum=WGS84 +units=m +no_defs"/>

    <type id="highway.footway" priority="1" numLanes="1" speed="2.78" allow="pedestrian" oneway="1" width="2.00"/>
    <type id="highway.path" priority="1" numLanes="1" speed="5.56" allow="pedestrian bicycle" oneway="0" width="2.00"/>
    <type id="highway.pedestrian" priority="1" numLanes="1" speed="2.78" allow="pedestrian" oneway="1" width="2.00"/>
    <type id="highway.primary" priority="12" numLanes="2" speed="27.78" disallow="tram rail_urban rail rail_electric rail_fast ship container cable_car subway aircraft wheelchair scooter drone" oneway="0"/>
    <type id="highway.residential" priority="3" numLanes="1" speed="13.89" disallow="tram rail_urban rail rail_electric rail_fast ship container cable_car subway aircraft wheelchair scooter drone" oneway="0"/>
    <type id="highway.secondary" priority="11" numLanes="1" speed="27.78" disallow="tram rail_urban rail rail_electric rail_fast ship container cable_car subway aircraft wheelchair scooter drone" oneway="0"/>
    <type id="highway.secondary_link" priority="6" numLanes="1" speed="22.22" disallow="tram rail_urban rail rail_electric rail_fast ship container cable_car subway aircraft wheelchair scooter drone" oneway="0"/>
    <type id="highway.service" priority="1" numLanes="1" speed="5.56" allow="pedestrian delivery bicycle" oneway="0"/>
    <type id="highway.steps" priority="1" numLanes="1" speed="1.39" allow="pedestrian" oneway="1" width="2.00"/>
    <type id="highway.unclassified" priority="4" numLanes="1" speed="13.89" disallow="tram rail_urban rail rail_electric rail_fast ship container cable_car subway aircraft wheelchair scooter drone" oneway="0"/>

    <edge id=":10253014033_0" function="internal">
        <lane id=":10253014033_0_0" index="0" disallow="tram rail_urban rail rail_electric rail_fast ship container cable_car subway aircraft wheelchair scooter drone" speed="27.78" length="5.26" shape="1140.77,763.37 1136.50,766.45"/>
    </edge>
    <edge id=":10253014033_w0" function="walkingarea">
        <lane id=":10253014033_w0_0" index="0" allow="pedestrian" speed="2.78" length="4.72" width="3.20" shape="1139.68,767.97 1141.36,766.88 1141.01,766.04 1141.01,765.66 1141.12,765.30 1141.36,764.97 1141.70,764.67 1139.83,762.07 1138.90,762.49 1138.44,762.51 1137.97,762.39 1137.51,762.16 1137.05,761.79 1135.69,763.25 1136.16,763.92 1136.20,764.24 1136.12,764.55 1135.91,764.86 1135.57,765.15 1137.44,767.75 1138.32,767.31 1138.71,767.29 1139.07,767.39 1139.39,767.62"/>
    </edge>
    <edge id=":10727322978_0" function="internal">
        <lane id=":10727322978_0_0" index="0" disallow="tram rail_urban rail rail_electric rail_fast ship container cable_car subway aircraft wheelchair scooter drone" speed="27.78" length="5.95" shape="810.73,1043.36 805.42,1040.58"/>
        <lane id=":10727322978_0_1" index="1" disallow="tram rail_urban rail rail_electric rail_fast ship container cable_car subway aircraft wheelchair scooter drone" speed="27.78" length="5.95" shape="812.19,1040.51 806.96,1037.78"/>
    </edge>
    <edge id=":10727322978_w0" function="walkingarea">
        <lane id=":10727322978_w0_0" index="0" allow="pedestrian" speed="2.78" length="5.10" width="3.20" shape="806.70,1045.65 808.70,1045.59 808.83,1044.84 809.00,1044.64 809.26,1044.57 809.59,1044.61 809.99,1044.78 812.92,1039.09 807.73,1036.37 804.65,1041.99 805.77,1042.86 806.16,1043.42 806.45,1044.07 806.63,1044.81"/>
    </edge>
    <edge id=":11059693772_0" function="internal">
        <lane id=":11059693772_0_0" index="0" disallow="tram rail_urban rail rail_electric rail_fast ship container cable_car subway aircraft wheelchair scooter drone" speed="27.78" length="0.30" shape="789.18,757.57 789.38,757.35"/>
    </edge>
    <edge id=":11225387918_0" function="internal">
        <lane id=":11225387918_0_0" index="0" disallow="tram rail_urban rail rail_electric rail_fast ship container cable_car subway aircraft wheelchair scooter drone" speed="27.78" length="5.12" shape="837.07,849.35 832.15,847.94"/>
    </edge>
    <edge id=":11225387918_w0" function="walkingarea">
        <lane id=":11225387918_w0_0" index="0" allow="pedestrian" speed="2.78" length="4.60" width="3.20" shape="836.63,850.89 837.51,847.81 836.69,847.39 836.44,847.09 836.30,846.73 836.26,846.32 836.33,845.84 834.39,845.36 834.03,846.12 833.76,846.34 833.43,846.47 833.04,846.49 832.59,846.41 831.71,849.48 832.53,849.89 832.78,850.19 832.92,850.55 832.96,850.96 832.88,851.44 834.82,851.93 835.18,851.16 835.46,850.94 835.79,850.82 836.18,850.80"/>
    </edge>
    <edge id=":11340902117_w0" function="walkingarea">
        <lane id=":11340902117_w0_0" index="0" allow="pedestrian" speed="2.78" length="3.97" width="2.00" shape="751.11,697.89 753.10,697.69 752.96,696.06 752.95,695.49 753.00,694.92 753.12,694.24 753.29,693.32 751.33,692.93 750.99,693.75 750.71,694.04 750.36,694.24 749.93,694.37 749.44,694.42 749.46,696.42 750.31,696.57 750.62,696.78 750.86,697.07 751.02,697.44"/>
    </edge>
    <edge id=":11449715462_w0" function="walkingarea">
        <lane id=":11449715462_w0_0" index="0" allow="pedestrian" speed="2.78" length="3.99" width="2.00" shape="949.55,987.96 950.23,986.08 948.50,985.40 947.90,985.16 947.29,984.95 946.53,984.76 945.48,984.56 944.79,986.47 945.55,986.77 945.76,987.02 945.85,987.33 945.82,987.71 945.68,988.15 947.52,988.93 948.02,988.17 948.34,987.95 948.70,987.84 949.11,987.84"/>
    </edge>
    <edge id=":11449715463_0" function="internal">
        <lane id=":11449715463_0_0" index="0" disallow="pedestrian tram rail_urban rail rail_electric rail_fast ship container cable_car subway aircraft wheelchair scooter drone" speed="13.89" length="5.05" shape="937.57,1020.04 932.60,1019.14"/>
    </edge>
    <edge id=":11449715463_1" function="internal">
        <lane id=":11449715463_1_0" index="0" disallow="pedestrian tram rail_urban rail rail_electric rail_fast ship container cable_car subway aircraft wheelchair scooter drone" speed="13.89" length="5.05" shape="933.17,1015.99 938.14,1016.90"/>
    </edge>
    <edge id=":11449715463_c0" function="crossing" crossingEdges="315658897#1 -315658897#1">
        <lane id=":11449715463_c0_0" index="0" allow="pedestrian" speed="2.78" length="6.40" width="4.00" shape="935.94,1014.87 934.80,1021.17" outlineShape="937.91,1015.23 936.76,1021.52 932.83,1020.81 933.98,1014.51 937.91,1015.23 938.43,1015.32 938.79,1013.36 937.90,1011.70 936.05,1010.93 933.82,1012.45 933.46,1014.42 933.98,1014.51"/>
    </edge>
    <edge id=":11449715463_w0" function="walkingarea">
        <lane id=":11449715463_w0_0" index="0" allow="pedestrian" speed="2.78" length="3.49" width="4.00" shape="932.31,1020.71 931.95,1022.68 936.92,1023.59 937.28,1021.62 936.76,1021.52 932.83,1020.81"/>
    </edge>
    <edge id=":11449715463_w1" function="walkingarea">
        <lane id=":11449715463_w1_0" index="0" allow="pedestrian" speed="2.78" length="3.59" width="4.00" shape="933.98,1014.51 937.91,1015.23 938.43,1015.32 938.79,1013.36 937.90,1011.70 936.05,1010.93 933.82,1012.45 933.46,1014.42"/>
    </edge>
    <edge id=":11449716078_0" function="internal">
        <lane id=":11449716078_0_0" index="0" allow="pedestrian delivery bicycle" speed="7.16" length="7.31" shape="804.79,1011.69 804.96,1014.18 805.41,1016.10 806.14,1017.47 807.13,1018.28"/>
    </edge>
    <edge id=":11449716078_1" function="internal">
        <lane id=":11449716078_1_0" index="0" allow="pedestrian delivery bicycle" speed="4.72" length="5.66" shape="797.96,1014.10 799.57,1014.56 800.71,1014.32 801.38,1013.38 801.59,1011.73"/>
    </edge>
    <edge id=":11449716078_2" function="internal">
        <lane id=":11449716078_2_0" index="0" disallow="tram rail_urban rail rail_electric rail_fast ship container cable_car subway aircraft wheelchair scooter drone" speed="27.78" length="10.08" shape="797.96,1014.10 807.13,1018.28"/>
        <lane id=":11449716078_2_1" index="1" disallow="tram rail_urban rail rail_electric rail_fast ship container cable_car subway aircraft wheelchair scooter drone" speed="27.78" length="10.08" shape="796.61,1017.00 805.78,1021.18"/>
    </edge>
    <edge id=":11449716078_w0" function="walkingarea">
        <lane id=":11449716078_w0_0" index="0" allow="pedestrian" speed="2.78" length="6.74" width="6.40" shape="805.10,1022.63 807.81,1016.83 807.05,1015.98 806.78,1015.22 806.57,1014.25 806.45,1013.07 806.39,1011.66 799.99,1011.75 799.85,1012.52 799.66,1012.73 799.40,1012.82 799.06,1012.79 798.64,1012.64 795.94,1018.45"/>
    </edge>
    <edge id=":11449716191_0" function="internal">
        <lane id=":11449716191_0_0" index="0" disallow="pedestrian tram rail_urban rail rail_electric rail_fast ship container cable_car subway aircraft wheelchair scooter drone" speed="13.89" length="5.01" shape="962.60,959.98 962.12,964.98"/>
    </edge>
    <edge id=":11449716191_1" function="internal">
        <lane id=":11449716191_1_0" index="0" disallow="pedestrian tram rail_urban rail rail_electric rail_fast ship container cable_car subway aircraft wheelchair scooter drone" speed="13.89" length="5.01" shape="958.93,964.66 959.42,959.68"/>
    </edge>
    <edge id=":11449716191_c0" function="crossing" crossingEdges="-318747848#6 318747848#6">
        <lane id=":11449716191_c0_0" index="0" allow="pedestrian" speed="2.78" length="6.40" width="4.00" shape="957.58,962.02 963.95,962.63" outlineShape="957.68,960.02 964.24,960.65 965.75,964.81 966.18,960.33 964.19,960.14 964.15,960.64 963.76,964.62 957.39,964.01"/>
    </edge>
    <edge id=":11449716191_w0" function="walkingarea">
        <lane id=":11449716191_w0_0" index="0" allow="pedestrian" speed="2.78" length="3.47" width="4.00" shape="963.71,965.13 965.70,965.33 966.18,960.33 964.19,960.14 964.15,960.64 963.76,964.62"/>
    </edge>
    <edge id=":11449716191_w1" function="walkingarea">
        <lane id=":11449716191_w1_0" index="0" allow="pedestrian" speed="2.78" length="3.51" width="4.00" shape="957.39,964.01 957.77,960.03 957.82,959.52 955.83,959.33 954.20,960.63 953.94,962.61 955.35,964.31 957.34,964.51"/>
    </edge>
    <edge id=":11449716195_0" function="internal">
        <lane id=":11449716195_0_0" index="0" disallow="pedestrian tram rail_urban rail rail_electric rail_fast ship container cable_car subway aircraft wheelchair scooter drone" speed="13.89" length="5.00" shape="965.86,926.23 965.38,931.21"/>
    </edge>
    <edge id=":11449716195_1" function="internal">
        <lane id=":11449716195_1_0" index="0" disallow="pedestrian tram rail_urban rail rail_electric rail_fast ship container cable_car subway aircraft wheelchair scooter drone" speed="13.89" length="5.00" shape="962.19,930.90 962.67,925.92"/>
    </edge>
    <edge id=":11449716195_c0" function="crossing" crossingEdges="-318747848#5 318747848#5">
        <lane id=":11449716195_c0_0" index="0" allow="pedestrian" speed="2.78" length="6.40" width="4.00" shape="960.84,928.26 967.21,928.87" outlineShape="960.93,926.26 967.50,926.89 967.02,930.86 960.65,930.25 961.03,926.27 961.08,925.77 959.09,925.58 957.46,926.85 957.17,928.83 958.61,930.55 960.60,930.75 960.65,930.25"/>
    </edge>
    <edge id=":11449716195_w0" function="walkingarea">
        <lane id=":11449716195_w0_0" index="0" allow="pedestrian" speed="2.78" length="3.46" width="4.00" shape="966.97,931.36 968.96,931.55 969.44,926.57 967.45,926.38 967.40,926.88 967.02,930.86"/>
    </edge>
    <edge id=":11449716195_w1" function="walkingarea">
        <lane id=":11449716195_w1_0" index="0" allow="pedestrian" speed="2.78" length="3.51" width="4.00" shape="960.65,930.25 961.03,926.27 961.08,925.77 959.09,925.58 957.46,926.85 957.17,928.83 958.61,930.55 960.60,930.75"/>
    </edge>
    <edge id=":11449716196_w0" function="walkingarea">
        <lane id=":11449716196_w0_0" index="0" allow="pedestrian" speed="2.78" length="3.20" width="6.40" shape="904.53,925.32 901.33,925.33 907.73,925.31 904.53,925.32"/>
    </edge>
    <edge id=":11449716198_0" function="internal">
        <lane id=":11449716198_0_0" index="0" disallow="pedestrian tram rail_urban rail rail_electric rail_fast ship container cable_car subway aircraft wheelchair scooter drone" speed="13.89" length="5.00" shape="875.07,880.21 870.07,880.13"/>
    </edge>
    <edge id=":11449716198_1" function="internal">
        <lane id=":11449716198_1_0" index="0" disallow="pedestrian tram rail_urban rail rail_electric rail_fast ship container cable_car subway aircraft wheelchair scooter drone" speed="13.89" length="4.99" shape="870.12,876.93 875.12,877.01"/>
    </edge>
    <edge id=":11449716198_c0" function="crossing" crossingEdges="318747848#4 -318747848#4">
        <lane id=":11449716198_c0_0" index="0" allow="pedestrian" speed="2.78" length="6.40" width="4.00" shape="872.64,875.37 872.55,881.77" outlineShape="874.64,875.40 874.55,881.80 870.55,881.74 870.64,875.34"/>
    </edge>
    <edge id=":11449716198_w0" function="walkingarea">
        <lane id=":11449716198_w0_0" index="0" allow="pedestrian" speed="2.78" length="3.50" width="4.00" shape="870.05,881.73 870.01,883.73 871.53,885.30 873.53,885.29 875.01,883.81 875.04,881.81 874.55,881.80 870.55,881.74"/>
    </edge>
    <edge id=":11449716198_w1" function="walkingarea">
        <lane id=":11449716198_w1_0" index="0" allow="pedestrian" speed="2.78" length="3.46" width="4.00" shape="870.64,875.34 874.64,875.40 875.14,875.41 875.17,873.41 870.18,873.33 870.15,875.33"/>
    </edge>
    <edge id=":11449716203_0" function="internal">
        <lane id=":11449716203_0_0" index="0" allow="pedestrian delivery bicycle" speed="5.56" length="5.02" shape="821.03,903.08 816.14,901.90"/>
    </edge>
    <edge id=":11449716203_1" function="internal">
        <lane id=":11449716203_1_0" index="0" allow="pedestrian delivery bicycle" speed="5.56" length="5.02" shape="816.89,898.79 821.78,899.97"/>
    </edge>
    <edge id=":11449716203_w0" function="walkingarea">
        <lane id=":11449716203_w0_0" index="0" allow="pedestrian" speed="2.78" length="5.04" width="6.40" shape="820.65,904.63 822.15,898.41 817.27,897.23 815.77,903.46 816.51,903.80 816.72,904.07 816.81,904.38 816.79,904.76 816.66,905.19 818.51,905.95 819.05,905.06 819.39,904.79 819.76,904.62 820.19,904.57"/>
    </edge>
    <edge id=":11449716209_0" function="internal">
        <lane id=":11449716209_0_0" index="0" disallow="pedestrian tram rail_urban rail rail_electric rail_fast ship container cable_car subway aircraft wheelchair scooter drone" speed="13.89" length="5.00" shape="844.20,925.17 844.06,920.17"/>
    </edge>
    <edge id=":11449716209_1" function="internal">
        <lane id=":11449716209_1_0" index="0" disallow="pedestrian tram rail_urban rail rail_electric rail_fast ship container cable_car subway aircraft wheelchair scooter drone" speed="13.89" length="5.00" shape="847.26,920.08 847.40,925.08"/>
    </edge>
    <edge id=":11449716209_c0" function="crossing" crossingEdges="-315658884#2 315658884#2">
        <lane id=":11449716209_c0_0" index="0" allow="pedestrian" speed="2.78" length="6.40" width="4.00" shape="848.93,922.53 842.53,922.71" outlineShape="849.08,924.53 842.49,924.71 842.48,920.71 848.87,920.53 848.99,924.53 849.00,925.03 851.00,924.98 850.86,919.97 848.86,920.03 848.87,920.53"/>
    </edge>
    <edge id=":11449716209_w0" function="walkingarea">
        <lane id=":11449716209_w0_0" index="0" allow="pedestrian" speed="2.78" length="3.49" width="4.00" shape="842.46,920.21 840.46,920.27 839.00,921.81 839.06,923.81 840.60,925.27 842.60,925.21 842.59,924.71 842.48,920.71"/>
    </edge>
    <edge id=":11449716209_w1" function="walkingarea">
        <lane id=":11449716209_w1_0" index="0" allow="pedestrian" speed="2.78" length="3.47" width="4.00" shape="848.87,920.53 848.99,924.53 849.00,925.03 851.00,924.98 850.86,919.97 848.86,920.03"/>
    </edge>
    <edge id=":11449716210_0" function="internal">
        <lane id=":11449716210_0_0" index="0" allow="pedestrian delivery bicycle" speed="5.56" length="5.02" shape="824.78,967.17 819.77,967.48"/>
    </edge>
    <edge id=":11449716210_1" function="internal">
        <lane id=":11449716210_1_0" index="0" allow="pedestrian delivery bicycle" speed="5.56" length="5.02" shape="819.57,964.28 824.58,963.98"/>
    </edge>
    <edge id=":11449716210_w0" function="walkingarea">
        <lane id=":11449716210_w0_0" index="0" allow="pedestrian" speed="2.78" length="5.03" width="6.40" shape="824.88,968.77 824.49,962.38 823.62,962.24 823.28,962.01 823.00,961.69 822.79,961.26 822.64,960.73 820.68,961.12 820.68,961.95 820.52,962.25 820.28,962.47 819.93,962.62 819.48,962.69 819.87,969.07"/>
    </edge>
    <edge id=":11459942461_0" function="internal">
        <lane id=":11459942461_0_0" index="0" disallow="tram rail_urban rail rail_electric rail_fast ship container cable_car subway aircraft wheelchair scooter drone" speed="27.78" length="9.40" shape="765.95,712.66 765.80,703.26"/>
        <lane id=":11459942461_0_1" index="1" disallow="tram rail_urban rail rail_electric rail_fast ship container cable_car subway aircraft wheelchair scooter drone" speed="27.78" length="9.40" shape="769.15,712.61 769.00,703.21"/>
    </edge>
    <edge id=":11459942461_2" function="internal">
        <lane id=":11459942461_2_0" index="0" allow="pedestrian delivery bicycle" speed="7.72" length="2.73" shape="769.15,712.61 769.71,709.94"/>
    </edge>
    <edge id=":11459942461_8" function="internal">
        <lane id=":11459942461_8_0" index="0" allow="pedestrian delivery bicycle" speed="7.72" length="10.08" shape="769.71,709.94 771.47,707.96 774.43,706.68 778.60,706.10"/>
    </edge>
    <edge id=":11459942461_3" function="internal">
        <lane id=":11459942461_3_0" index="0" allow="pedestrian delivery bicycle" speed="5.15" length="5.13" shape="778.75,709.30 777.33,709.56 776.33,710.18 775.73,711.16 775.55,712.51"/>
    </edge>
    <edge id=":11459942461_4" function="internal">
        <lane id=":11459942461_4_0" index="0" allow="pedestrian delivery bicycle" speed="7.61" length="13.06" shape="778.75,709.30 774.53,709.09 771.49,708.01 769.65,706.05 769.00,703.21"/>
    </edge>
    <edge id=":11459942461_5" function="internal">
        <lane id=":11459942461_5_0" index="0" allow="pedestrian delivery bicycle" speed="5.01" length="5.04" shape="775.40,703.10 775.62,704.47 776.23,705.43 777.22,705.97 778.60,706.10"/>
    </edge>
    <edge id=":11459942461_6" function="internal">
        <lane id=":11459942461_6_0" index="0" disallow="tram rail_urban rail rail_electric rail_fast ship container cable_car subway aircraft wheelchair scooter drone" speed="27.78" length="9.40" shape="775.40,703.10 775.55,712.51"/>
        <lane id=":11459942461_6_1" index="1" disallow="tram rail_urban rail rail_electric rail_fast ship container cable_car subway aircraft wheelchair scooter drone" speed="27.78" length="9.40" shape="772.20,703.16 772.35,712.56"/>
    </edge>
    <edge id=":11459942461_w0" function="walkingarea">
        <lane id=":11459942461_w0_0" index="0" allow="pedestrian" speed="2.78" length="9.73" width="12.80" shape="764.35,712.68 777.15,712.48 777.33,711.64 777.56,711.34 777.89,711.11 778.31,710.97 778.83,710.90 778.52,704.51 777.69,704.38 777.39,704.19 777.18,703.90 777.05,703.53 777.00,703.08 764.20,703.29"/>
    </edge>
    <edge id=":11459942462_w0" function="walkingarea">
        <lane id=":11459942462_w0_0" index="0" allow="pedestrian" speed="2.78" length="4.32" width="6.40" shape="832.95,709.25 834.18,707.67 829.96,702.01 830.27,708.40 831.34,708.40 831.72,708.48 832.07,708.63 832.46,708.88"/>
    </edge>
    <edge id=":11459942464_0" function="internal">
        <lane id=":11459942464_0_0" index="0" disallow="tram rail_urban rail rail_electric rail_fast ship container cable_car subway aircraft wheelchair scooter drone" speed="27.78" length="5.12" shape="838.70,721.28 843.06,718.73"/>
        <lane id=":11459942464_0_1" index="1" disallow="tram rail_urban rail rail_electric rail_fast ship container cable_car subway aircraft wheelchair scooter drone" speed="27.78" length="5.12" shape="840.27,724.06 844.70,721.48"/>
        <lane id=":11459942464_0_2" index="2" disallow="tram rail_urban rail rail_electric rail_fast ship container cable_car subway aircraft wheelchair scooter drone" speed="27.78" length="5.12" shape="841.85,726.85 846.34,724.23"/>
    </edge>
    <edge id=":11459942464_w0" function="walkingarea">
        <lane id=":11459942464_w0_0" index="0" allow="pedestrian" speed="2.78" length="4.40" width="3.20" shape="847.16,725.60 842.24,717.36 841.45,717.63 841.12,717.59 840.82,717.43 840.56,717.15 840.34,716.75 838.51,717.56 838.76,718.52 838.71,718.94 838.56,719.30 838.29,719.62 837.91,719.89 842.64,728.24"/>
    </edge>
    <edge id=":11459943051_w0" function="walkingarea">
        <lane id=":11459943051_w0_0" index="0" allow="pedestrian" speed="2.78" length="0.21" width="2.00" shape="838.47,694.88 839.27,693.05 838.10,694.67 838.23,694.76 838.28,694.79 838.32,694.81 838.38,694.84"/>
    </edge>
    <edge id=":11459943053_0" function="internal">
        <lane id=":11459943053_0_0" index="0" disallow="tram rail_urban rail rail_electric rail_fast ship container cable_car subway aircraft wheelchair scooter drone" speed="27.78" length="5.16" shape="860.30,708.44 864.73,705.80"/>
        <lane id=":11459943053_0_1" index="1" disallow="tram rail_urban rail rail_electric rail_fast ship container cable_car subway aircraft wheelchair scooter drone" speed="27.78" length="5.16" shape="861.94,711.19 866.37,708.55"/>
        <lane id=":11459943053_0_2" index="2" disallow="tram rail_urban rail rail_electric rail_fast ship container cable_car subway aircraft wheelchair scooter drone" speed="27.78" length="5.16" shape="863.58,713.94 868.01,711.30"/>
    </edge>
    <edge id=":11459943053_w0" function="walkingarea">
        <lane id=":11459943053_w0_0" index="0" allow="pedestrian" speed="2.78" length="4.57" width="3.20" shape="868.83,712.67 863.91,704.43 862.99,704.70 862.48,704.65 861.94,704.49 861.37,704.21 860.77,703.80 859.57,705.40 860.09,705.99 860.15,706.27 860.06,706.54 859.84,706.81 859.48,707.07 864.40,715.31"/>
    </edge>
    <edge id=":11459943054_0" function="internal">
        <lane id=":11459943054_0_0" index="0" disallow="tram rail_urban rail rail_electric rail_fast ship container cable_car subway aircraft wheelchair scooter drone" speed="27.78" length="5.11" shape="879.55,695.32 883.62,692.24"/>
        <lane id=":11459943054_0_1" index="1" disallow="tram rail_urban rail rail_electric rail_fast ship container cable_car subway aircraft wheelchair scooter drone" speed="27.78" length="5.11" shape="881.48,697.88 885.55,694.80"/>
        <lane id=":11459943054_0_2" index="2" disallow="tram rail_urban rail rail_electric rail_fast ship container cable_car subway aircraft wheelchair scooter drone" speed="27.78" length="5.11" shape="883.40,700.43 887.48,697.35"/>
    </edge>
    <edge id=":11459943054_w0" function="walkingarea">
        <lane id=":11459943054_w0_0" index="0" allow="pedestrian" speed="2.78" length="4.52" width="3.20" shape="888.45,698.63 882.66,690.97 881.80,691.33 881.32,691.34 880.80,691.22 880.26,690.99 879.68,690.64 878.55,692.29 879.10,692.86 879.17,693.15 879.11,693.45 878.91,693.75 878.58,694.04 884.37,701.71"/>
    </edge>
    <edge id=":11459943055_w0" function="walkingarea">
        <lane id=":11459943055_w0_0" index="0" allow="pedestrian" speed="2.78" length="2.33" width="2.00" shape="872.13,687.86 873.27,686.21 872.52,685.70 872.25,685.53 871.98,685.37 871.64,685.18 871.18,684.94 870.24,686.70 870.96,687.09 871.21,687.24 871.45,687.39 871.74,687.59"/>
    </edge>
    <edge id=":11459943059_0" function="internal">
        <lane id=":11459943059_0_0" index="0" disallow="pedestrian tram rail_urban rail rail_electric rail_fast ship container cable_car subway aircraft wheelchair scooter drone" speed="13.89" length="5.00" shape="863.78,660.25 859.07,661.92"/>
    </edge>
    <edge id=":11459943059_1" function="internal">
        <lane id=":11459943059_1_0" index="0" disallow="pedestrian tram rail_urban rail rail_electric rail_fast ship container cable_car subway aircraft wheelchair scooter drone" speed="13.89" length="5.00" shape="858.00,658.90 862.72,657.23"/>
    </edge>
    <edge id=":11459943059_c0" function="crossing" crossingEdges="-351672100#1 351672100#1">
        <lane id=":11459943059_c0_0" index="0" allow="pedestrian" speed="2.78" length="6.40" width="4.00" shape="859.83,656.56 861.96,662.59" outlineShape="861.68,655.80 863.88,662.02 860.07,663.26 857.94,657.22 861.71,655.89 862.18,655.72 861.52,653.84 856.80,655.50 857.47,657.39 857.94,657.22"/>
    </edge>
    <edge id=":11459943059_w0" function="walkingarea">
        <lane id=":11459943059_w0_0" index="0" allow="pedestrian" speed="2.78" length="3.50" width="4.00" shape="859.60,663.42 860.27,665.31 862.15,666.23 864.05,665.60 864.98,663.64 864.32,661.76 863.85,661.92 860.07,663.26"/>
    </edge>
    <edge id=":11459943059_w1" function="walkingarea">
        <lane id=":11459943059_w1_0" index="0" allow="pedestrian" speed="2.78" length="3.46" width="4.00" shape="857.94,657.22 861.71,655.89 862.18,655.72 861.52,653.84 856.80,655.50 857.47,657.39"/>
    </edge>
    <edge id=":11459943069_0" function="internal">
        <lane id=":11459943069_0_0" index="0" disallow="pedestrian tram rail_urban rail rail_electric rail_fast ship container cable_car subway aircraft wheelchair scooter drone" speed="13.89" length="5.00" shape="894.86,640.34 891.37,643.92"/>
    </edge>
    <edge id=":11459943069_1" function="internal">
        <lane id=":11459943069_1_0" index="0" disallow="pedestrian tram rail_urban rail rail_electric rail_fast ship container cable_car subway aircraft wheelchair scooter drone" speed="13.89" length="4.99" shape="889.03,641.72 892.52,638.15"/>
    </edge>
    <edge id=":11459943069_c0" function="crossing" crossingEdges="-351672100#0 351672100#0">
        <lane id=":11459943069_c0_0" index="0" allow="pedestrian" speed="2.78" length="6.40" width="4.00" shape="889.65,638.88 894.32,643.25" outlineShape="891.02,637.42 895.69,641.79 892.96,644.71 888.28,640.34"/>
    </edge>
    <edge id=":11459943069_w0" function="walkingarea">
        <lane id=":11459943069_w0_0" index="0" allow="pedestrian" speed="2.78" length="3.12" width="4.00" shape="892.58,644.97 893.95,646.43 895.36,645.67 896.86,644.34 897.49,642.80 896.03,641.43 895.69,641.79 892.96,644.71"/>
    </edge>
    <edge id=":11459943069_w1" function="walkingarea">
        <lane id=":11459943069_w1_0" index="0" allow="pedestrian" speed="2.78" length="3.46" width="4.00" shape="888.28,640.34 891.02,637.42 891.35,637.06 889.89,635.69 886.45,639.20 887.82,640.66"/>
    </edge>
    <edge id=":11459943070_w0" function="walkingarea">
        <lane id=":11459943070_w0_0" index="0" allow="pedestrian" speed="2.78" length="0.30" width="2.00" shape="900.08,650.84 901.56,649.49 901.36,649.27 899.88,650.61"/>
    </edge>
    <edge id=":11459943071_0" function="internal">
        <lane id=":11459943071_0_0" index="0" disallow="tram rail_urban rail rail_electric rail_fast ship container cable_car subway aircraft wheelchair scooter drone" speed="27.78" length="5.01" shape="914.42,668.97 918.42,665.95"/>
        <lane id=":11459943071_0_1" index="1" disallow="tram rail_urban rail rail_electric rail_fast ship container cable_car subway aircraft wheelchair scooter drone" speed="27.78" length="5.01" shape="916.35,671.52 920.35,668.50"/>
        <lane id=":11459943071_0_2" index="2" disallow="tram rail_urban rail rail_electric rail_fast ship container cable_car subway aircraft wheelchair scooter drone" speed="27.78" length="5.01" shape="918.28,674.07 922.28,671.06"/>
    </edge>
    <edge id=":11459943071_w0" function="walkingarea">
        <lane id=":11459943071_w0_0" index="0" allow="pedestrian" speed="2.78" length="4.37" width="3.20" shape="923.24,672.33 917.46,664.67 916.67,665.04 916.27,665.04 915.89,664.92 915.50,664.69 915.12,664.33 913.65,665.68 914.07,666.39 914.10,666.74 914.01,667.07 913.80,667.38 913.46,667.69 919.25,675.35"/>
    </edge>
    <edge id=":11459943072_w0" function="walkingarea">