<?xml version="1.0" encoding="UTF-8"?>

<!-- generated on 2026-04-15T02:53:36.393410+09:00 by Eclipse SUMO netconvert 1.26.0
<netconvertConfiguration xmlns:xsi="http://www.w3.org/2001/XMLSchema-instance" xsi:noNamespaceSchemaLocation="http://sumo.dlr.de/xsd/netconvertConfiguration.xsd">

    <input>
        <osm-files value="/Users/junlee/Desktop/2026-1/js/result/2026-04-15_02-53-02/sumo_nets/cw_23040/map.osm"/>
    </input>

    <output>
        <output-file value="/Users/junlee/Desktop/2026-1/js/result/2026-04-15_02-53-02/sumo_nets/cw_23040/network.net.xml"/>
    </output>

    <projection>
        <proj.utm value="true"/>
    </projection>

    <processing>
        <geometry.remove value="true"/>
        <roundabouts.guess value="true"/>
    </processing>

    <tls_building>
        <tls.guess value="true"/>
        <tls.guess-signals value="true"/>
    </tls_building>

    <ramp_guessing>
        <ramps.guess value="true"/>
    </ramp_guessing>

    <edge_removal>
        <keep-edges.by-vclass value="passenger,pedestrian"/>
    </edge_removal>

    <junctions>
        <no-turnarounds value="true"/>
        <junctions.join value="true"/>
    </junctions>

    <pedestrian>
        <sidewalks.guess value="true"/>
        <sidewalks.guess.max-speed value="13.89"/>
        <crossings.guess value="true"/>
    </pedestrian>

    <report>
        <verbose value="true"/>
    </report>

</netconvertConfiguration>
-->

<net version="1.20" junctionCornerDetail="5" walkingareas="true" limitTurnSpeed="5.50" xmlns:xsi="http://www.w3.org/2001/XMLSchema-instance" xsi:noNamespaceSchemaLocation="http://sumo.dlr.de/xsd/net_file.xsd">

    <location netOffset="-320800.46,-4157742.98" convBoundary="0.00,0.00,496.07,873.61" origBoundary="126.638099,37.384663,127.103615,37.716138" projParameter="+proj=utm +zone=52 +ellps=WGS84 +datum=WGS84 +units=m +no_defs"/>

    <type id="highway.footway" priority="1" numLanes="1" speed="2.78" allow="pedestrian" oneway="1" width="2.00"/>
    <type id="highway.pedestrian" priority="1" numLanes="1" speed="2.78" allow="pedestrian" oneway="1" width="2.00"/>
    <type id="highway.primary" priority="12" numLanes="2" speed="27.78" disallow="tram rail_urban rail rail_electric rail_fast ship container cable_car subway aircraft wheelchair scooter drone" oneway="0"/>
    <type id="highway.primary_link" priority="7" numLanes="1" speed="22.22" disallow="tram rail_urban rail rail_electric rail_fast ship container cable_car subway aircraft wheelchair scooter drone" oneway="0"/>
    <type id="highway.residential" priority="3" numLanes="1" speed="13.89" disallow="tram rail_urban rail rail_electric rail_fast ship container cable_car subway aircraft wheelchair scooter drone" oneway="0"/>
    <type id="highway.service" priority="1" numLanes="1" speed="5.56" allow="pedestrian delivery bicycle" oneway="0"/>
    <type id="highway.steps" priority="1" numLanes="1" speed="1.39" allow="pedestrian" oneway="1" width="2.00"/>
    <type id="highway.tertiary" priority="10" numLanes="1" speed="22.22" disallow="tram rail_urban rail rail_electric rail_fast ship container cable_car subway aircraft wheelchair scooter drone" oneway="0"/>

    <edge id=":10013086401_w0" function="walkingarea">
        <lane id=":10013086401_w0_0" index="0" allow="pedestrian" speed="2.78" length="4.20" width="2.00" shape="16.24,629.45 17.11,627.65 16.47,627.16 16.35,626.88 16.36,626.58 16.51,626.25 16.78,625.90 15.33,624.53 11.84,628.24 13.30,629.61 14.08,629.11 14.55,629.03 15.06,629.05 15.62,629.19"/>
    </edge>
    <edge id=":10013086402_w0" function="walkingarea">
        <lane id=":10013086402_w0_0" index="0" allow="pedestrian" speed="2.78" length="0.24" width="2.00" shape="24.94,633.65 25.74,631.82 25.56,631.74 24.69,633.54"/>
    </edge>
    <edge id=":10185468315_0" function="internal">
        <lane id=":10185468315_0_0" index="0" allow="pedestrian delivery bicycle" speed="5.56" length="6.35" shape="73.42,581.08 73.51,579.20 73.40,577.87 72.90,576.68 71.78,575.21"/>
    </edge>
    <edge id=":10185468315_w0" function="walkingarea">
        <lane id=":10185468315_w0_0" index="0" allow="pedestrian" speed="2.78" length="5.26" width="3.20" shape="76.65,576.89 75.73,575.11 74.83,575.32 74.38,575.23 73.93,575.00 73.47,574.65 73.00,574.17 70.57,576.25 70.89,577.01 70.81,577.39 70.57,577.76 70.16,578.14 69.60,578.51 70.60,580.25 71.31,580.00 71.55,580.06 71.72,580.24 71.81,580.56 71.82,580.99 75.02,581.16 75.28,579.12 75.52,578.34 75.82,577.70 76.20,577.22"/>
    </edge>
    <edge id=":11139302901_w0" function="walkingarea">
        <lane id=":11139302901_w0_0" index="0" allow="pedestrian" speed="2.78" length="3.73" width="3.20" shape="117.71,802.93 105.09,800.76 104.50,800.78 101.38,801.50 104.47,812.99 107.41,819.99 110.20,822.48 112.85,820.46 115.35,813.95"/>
    </edge>
    <edge id=":11177412832_0" function="internal">
        <lane id=":11177412832_0_0" index="0" disallow="pedestrian tram rail_urban rail rail_electric rail_fast ship container cable_car subway aircraft wheelchair scooter drone" speed="8.46" length="1.35" shape="186.82,566.70 186.45,566.57 186.18,566.50 185.91,566.47 185.51,566.48"/>
    </edge>
    <edge id=":11177412832_1" function="internal">
        <lane id=":11177412832_1_0" index="0" disallow="pedestrian tram rail_urban rail rail_electric rail_fast ship container cable_car subway aircraft wheelchair scooter drone" speed="11.46" length="2.54" shape="185.45,563.28 186.21,563.27 186.72,563.32 187.22,563.45 187.93,563.70"/>
    </edge>
    <edge id=":11177412832_c0" function="crossing" crossingEdges="464445691#1 -464445691#1">
        <lane id=":11177412832_c0_0" index="0" allow="pedestrian" speed="2.78" length="6.40" width="4.00" shape="186.61,561.50 184.39,567.51" outlineShape="188.49,562.20 186.27,568.20 185.55,568.62 185.57,570.08 186.27,568.20 182.52,566.81 184.74,560.81 185.44,559.68 185.43,561.68 186.09,561.67 186.59,561.68 186.99,561.73 187.39,561.82 187.86,561.97"/>
    </edge>
    <edge id=":11177412832_w0" function="walkingarea">
        <lane id=":11177412832_w0_0" index="0" allow="pedestrian" speed="2.78" length="1.52" width="4.00" shape="185.54,568.08 185.57,570.08 186.27,568.20 186.12,568.15 186.01,568.11 185.91,568.09 185.81,568.08 185.70,568.07"/>
    </edge>
    <edge id=":11177412832_w1" function="walkingarea">
        <lane id=":11177412832_w1_0" index="0" allow="pedestrian" speed="2.78" length="2.39" width="4.00" shape="188.49,562.20 189.18,560.32 188.41,560.04 187.82,559.85 187.33,559.74 186.83,559.68 186.21,559.67 185.39,559.68 185.43,561.68 186.09,561.67 186.59,561.68 186.99,561.73 187.39,561.82 187.86,561.97"/>
    </edge>
    <edge id=":11177413148_0" function="internal">
        <lane id=":11177413148_0_0" index="0" disallow="tram rail_urban rail rail_electric rail_fast ship container cable_car subway aircraft wheelchair scooter drone" speed="11.56" length="10.82" shape="124.02,553.96 124.87,550.95 125.83,548.85 127.35,547.13 129.82,545.27"/>
    </edge>
    <edge id=":11177413148_1" function="internal">
        <lane id=":11177413148_1_0" index="0" disallow="tram rail_urban rail rail_electric rail_fast ship container cable_car subway aircraft wheelchair scooter drone" speed="9.14" length="10.04" shape="124.02,553.96 124.79,552.55 126.39,551.15 128.80,549.76 132.05,548.38"/>
    </edge>
    <edge id=":11177413148_w0" function="walkingarea">
        <lane id=":11177413148_w0_0" index="0" allow="pedestrian" speed="2.78" length="8.02" width="3.20" shape="132.61,549.88 131.48,546.88 131.13,546.31 128.51,544.22 126.56,545.63 125.21,546.84 124.28,548.05 123.63,549.44 123.07,551.21 122.47,553.56 125.57,554.35 126.58,552.96 127.59,552.22 128.93,551.47 130.60,550.68"/>
    </edge>
    <edge id=":11177413151_0" function="internal">
        <lane id=":11177413151_0_0" index="0" allow="pedestrian delivery bicycle" speed="16.67" length="18.85" shape="104.36,567.53 106.88,564.55 109.80,561.42 112.28,557.35 113.48,551.57"/>
    </edge>
    <edge id=":11177413151_1" function="internal">
        <lane id=":11177413151_1_0" index="0" disallow="tram rail_urban rail rail_electric rail_fast ship container cable_car subway aircraft wheelchair scooter drone" speed="27.78" length="18.44" shape="107.91,568.83 109.23,563.62 111.00,560.23 112.62,556.83 113.48,551.57"/>
        <lane id=":11177413151_1_1" index="1" disallow="tram rail_urban rail rail_electric rail_fast ship container cable_car subway aircraft wheelchair scooter drone" speed="27.78" length="18.44" shape="111.08,569.25 112.41,563.95 114.19,560.50 115.82,557.04 116.68,551.70"/>
    </edge>
    <edge id=":11177413151_w0" function="walkingarea">
        <lane id=":11177413151_w0_0" index="0" allow="pedestrian" speed="2.78" length="13.43" width="3.20" shape="118.28,551.76 111.88,551.51 111.43,555.16 110.49,557.70 109.10,559.61 107.35,561.40 105.30,563.59 103.01,566.66 105.70,568.40 106.32,568.62 119.01,570.29 119.35,566.37 119.28,563.46 118.96,561.05 118.57,558.64 118.29,555.71"/>
    </edge>
    <edge id=":11178710193_0" function="internal">
        <lane id=":11178710193_0_0" index="0" disallow="tram rail_urban rail rail_electric rail_fast ship container cable_car subway aircraft wheelchair scooter drone" speed="22.22" length="0.10" shape="185.57,539.30 185.57,539.30"/>
    </edge>
    <edge id=":11178710196_0" function="internal">
        <lane id=":11178710196_0_0" index="0" disallow="tram rail_urban rail rail_electric rail_fast ship container cable_car subway aircraft wheelchair scooter drone" speed="22.22" length="0.10" shape="114.84,593.13 114.84,593.13"/>
    </edge>
    <edge id=":11178710201_w0" function="walkingarea">
        <lane id=":11178710201_w0_0" index="0" allow="pedestrian" speed="2.78" length="4.07" width="2.00" shape="176.89,767.82 178.85,767.42 178.59,765.85 178.57,765.29 178.63,764.73 178.74,764.06 178.91,763.16 176.94,762.80 176.63,763.57 176.38,763.80 176.06,763.92 175.68,763.93 175.24,763.83 174.64,765.74 175.76,766.24 176.18,766.56 176.50,766.93 176.74,767.35"/>
    </edge>
    <edge id=":11178710216_w0" function="walkingarea">
        <lane id=":11178710216_w0_0" index="0" allow="pedestrian" speed="2.78" length="3.39" width="2.00" shape="61.80,657.13 63.80,657.12 65.33,655.58 65.28,653.58 63.78,652.12 61.78,652.13"/>
    </edge>
    <edge id=":11178710217_0" function="internal">
        <lane id=":11178710217_0_0" index="0" allow="pedestrian delivery bicycle" speed="5.56" length="5.13" shape="64.92,657.12 64.90,651.99"/>
    </edge>
    <edge id=":11178710217_w0" function="walkingarea">
        <lane id=":11178710217_w0_0" index="0" allow="pedestrian" speed="2.78" length="3.75" width="3.20" shape="63.32,657.13 66.52,657.11 68.13,655.38 68.00,653.39 66.50,651.98 63.30,652.00 61.77,653.66 61.82,655.66"/>
    </edge>
    <edge id=":11178746141_0" function="internal">
        <lane id=":11178746141_0_0" index="0" disallow="tram rail_urban rail rail_electric rail_fast ship container cable_car subway aircraft wheelchair scooter drone" speed="27.78" length="5.15" shape="178.42,783.50 179.86,782.97 180.86,782.67 181.89,782.44 183.39,782.12"/>
        <lane id=":11178746141_0_1" index="1" disallow="tram rail_urban rail rail_electric rail_fast ship container cable_car subway aircraft wheelchair scooter drone" speed="27.78" length="5.15" shape="179.15,786.65 180.58,786.12 181.58,785.81 182.60,785.57 184.09,785.24"/>
    </edge>
    <edge id=":11178746141_w0" function="walkingarea">
        <lane id=":11178746141_w0_0" index="0" allow="pedestrian" speed="2.78" length="5.62" width="3.20" shape="181.21,789.16 183.17,788.76 184.44,786.80 183.04,780.56 182.19,780.58 181.87,780.44 181.60,780.20 181.41,779.86 181.28,779.42 179.32,779.82 179.31,780.72 179.15,781.09 178.89,781.42 178.53,781.70 178.06,781.93 179.51,788.23"/>
    </edge>
    <edge id=":2330782460_w0" function="walkingarea">
        <lane id=":2330782460_w0_0" index="0" allow="pedestrian" speed="2.78" length="8.40" width="2.00" shape="235.67,111.27 237.67,111.21 227.27,111.51 229.27,111.45"/>
    </edge>
    <edge id=":3352633994_w0" function="walkingarea">
        <lane id=":3352633994_w0_0" index="0" allow="pedestrian" speed="2.78" length="3.95" width="4.00" shape="306.18,793.50 306.97,791.67 305.83,790.99 305.49,790.62 305.31,790.22 305.28,789.80 305.40,789.35 303.57,788.55 302.66,789.97 302.22,790.40 301.79,790.83 301.37,791.41 300.97,792.29 304.02,794.19 304.61,793.54 304.95,793.38 305.33,793.31 305.73,793.36"/>
    </edge>
    <edge id=":3352633998_w0" function="walkingarea">
        <lane id=":3352633998_w0_0" index="0" allow="pedestrian" speed="2.78" length="2.98" width="4.00" shape="305.16,774.01 301.53,772.36 303.56,770.84 300.08,773.69 299.92,774.53 299.98,774.86 300.04,775.18 300.03,775.56 299.88,776.03 303.53,777.66"/>
    </edge>
    <edge id=":3352634009_w0" function="walkingarea">
        <lane id=":3352634009_w0_0" index="0" allow="pedestrian" speed="2.78" length="6.37" width="4.00" shape="300.19,800.52 299.89,795.19 295.59,795.44 291.94,793.81 291.30,794.83 290.94,795.12 290.55,795.28 290.14,795.28 289.70,795.15 288.86,796.96 292.11,798.41 294.81,799.51 296.97,800.28 298.58,800.70 299.66,800.78"/>
    </edge>
    <edge id=":3390511096_w0" function="walkingarea">
        <lane id=":3390511096_w0_0" index="0" allow="pedestrian" speed="2.78" length="4.05" width="2.00" shape="36.09,611.66 36.11,609.66 35.20,609.45 34.82,609.20 34.48,608.85 34.18,608.41 33.93,607.87 32.07,608.58 32.20,609.41 32.11,609.74 31.90,610.02 31.59,610.25 31.17,610.42 31.75,612.33 33.32,611.87 33.88,611.75 34.45,611.68 35.15,611.65"/>
    </edge>
    <edge id=":3390511894_0" function="internal">
        <lane id=":3390511894_0_0" index="0" disallow="tram rail_urban rail rail_electric rail_fast ship container cable_car subway aircraft wheelchair scooter drone" speed="18.80" length="5.56" shape="180.46,753.74 181.28,755.17 181.93,756.10 182.72,756.92 183.96,758.00"/>
    </edge>
    <edge id=":3390511894_w0" function="walkingarea">
        <lane id=":3390511894_w0_0" index="0" allow="pedestrian" speed="2.78" length="4.78" width="3.20" shape="182.92,759.21 185.00,756.78 184.49,756.13 184.43,755.80 184.50,755.47 184.70,755.14 185.03,754.81 183.73,753.29 183.01,753.68 182.69,753.69 182.39,753.57 182.11,753.32 181.85,752.95 179.07,754.53 179.55,755.75 179.61,756.29 179.53,756.80 179.34,757.26 179.01,757.67 180.44,759.07 181.19,758.61 181.59,758.57 182.01,758.66 182.45,758.87"/>
    </edge>
    <edge id=":3390511996_w0" function="walkingarea">
        <lane id=":3390511996_w0_0" index="0" allow="pedestrian" speed="2.78" length="8.44" width="2.00" shape="56.72,610.75 56.77,612.75 65.07,612.23 65.25,610.24 63.28,611.98 61.97,611.65 60.90,611.31 59.83,611.00 58.52,610.80"/>
    </edge>
    <edge id=":3390511996_w1" function="walkingarea">
        <lane id=":3390511996_w1_0" index="0" allow="pedestrian" speed="2.78" length="6.46" width="2.00" shape="65.07,612.23 65.25,610.24 60.15,607.20 58.15,607.22 56.67,608.76 56.72,610.76 58.54,610.65 59.88,610.49 60.99,610.31 62.10,610.18 63.44,610.14"/>
    </edge>
    <edge id=":3390512593_w0" function="walkingarea">
        <lane id=":3390512593_w0_0" index="0" allow="pedestrian" speed="2.78" length="4.03" width="2.00" shape="136.90,643.26 136.91,641.26 136.07,641.09 135.78,640.88 135.56,640.58 135.43,640.20 135.39,639.73 133.39,639.76 133.23,640.59 133.03,640.89 132.74,641.10 132.36,641.22 131.91,641.27 131.92,643.27"/>
    </edge>
    <edge id=":3390512793_0" function="internal">
        <lane id=":3390512793_0_0" index="0" disallow="tram rail_urban rail rail_electric rail_fast ship container cable_car subway aircraft wheelchair scooter drone" speed="27.78" length="3.23" shape="167.74,731.19 168.04,734.35"/>
        <lane id=":3390512793_0_1" index="1" disallow="tram rail_urban rail rail_electric rail_fast ship container cable_car subway aircraft wheelchair scooter drone" speed="27.78" length="3.23" shape="164.55,731.33 164.85,734.62"/>
    </edge>
    <edge id=":3390512793_2" function="internal">
        <lane id=":3390512793_2_0" index="0" disallow="tram rail_urban rail rail_electric rail_fast ship container cable_car subway aircraft wheelchair scooter drone" speed="27.78" length="4.08" shape="164.55,731.33 167.21,734.42"/>
        <lane id=":3390512793_2_1" index="1" disallow="tram rail_urban rail rail_electric rail_fast ship container cable_car subway aircraft wheelchair scooter drone" speed="27.78" length="3.46" shape="164.55,731.33 164.53,732.35 164.38,733.03 164.14,733.71 163.86,734.70"/>
    </edge>
    <edge id=":3390512793_w0" function="walkingarea">
        <lane id=":3390512793_w0_0" index="0" allow="pedestrian" speed="2.78" length="2.43" width="3.20" shape="162.19,734.84 169.63,734.22 169.34,731.12 162.95,731.40 162.87,732.69 162.75,733.14 162.58,733.58 162.39,734.11"/>
    </edge>
    <edge id=":3390941201_w0" function="walkingarea">
        <lane id=":3390941201_w0_0" index="0" allow="pedestrian" speed="2.78" length="2.99" width="2.00" shape="153.93,758.60 154.67,756.74 151.90,755.63 151.15,757.48"/>
    </edge>
    <edge id=":3390980830_0" function="internal">
        <lane id=":3390980830_0_0" index="0" allow="pedestrian delivery bicycle" speed="5.56" length="5.28" shape="64.54,613.49 64.54,611.92 64.58,610.85 64.69,609.78 64.88,608.23"/>
    </edge>
    <edge id=":3390980830_w0" function="walkingarea">
        <lane id=":3390980830_w0_0" index="0" allow="pedestrian" speed="2.78" length="4.15" width="3.20" shape="62.94,613.50 66.14,613.48 66.33,612.61 66.57,612.29 66.90,612.06 67.33,611.92 67.86,611.85 67.78,609.86 66.97,609.72 66.70,609.53 66.53,609.25 66.45,608.88 66.47,608.43 63.29,608.03 61.42,610.01 61.44,612.01"/>
    </edge>
    <edge id=":3391061963_w0" function="walkingarea">
        <lane id=":3391061963_w0_0" index="0" allow="pedestrian" speed="2.78" length="3.18" width="3.20" shape="51.25,553.79 53.19,551.24 49.25,556.27 51.26,553.77"/>
    </edge>
    <edge id=":3391061968_0" function="internal">
        <lane id=":3391061968_0_0" index="0" allow="pedestrian delivery bicycle" speed="5.56" length="6.99" shape="77.57,571.86 79.22,573.10 80.40,573.91 81.63,574.61 83.47,575.58"/>
    </edge>
    <edge id=":3391061968_w0" function="walkingarea">
        <lane id=":3391061968_w0_0" index="0" allow="pedestrian" speed="2.78" length="5.82" width="3.20" shape="82.73,577.00 84.21,574.16 83.61,573.69 83.53,573.44 83.60,573.20 83.81,572.95 84.16,572.69 83.13,570.98 81.61,571.54 80.84,571.57 80.07,571.41 79.31,571.09 78.54,570.58 76.59,573.13 77.11,573.71 77.16,573.98 77.06,574.25 76.83,574.50 76.46,574.73 77.38,576.51 78.96,576.05 79.82,576.05 80.74,576.21 81.71,576.53"/>
    </edge>
    <edge id=":3391061969_0" function="internal">
        <lane id=":3391061969_0_0" index="0" allow="pedestrian delivery bicycle" speed="5.56" length="6.35" shape="84.06,575.89 85.94,576.73 87.57,577.17 88.97,577.23 90.12,576.89"/>
    </edge>
    <edge id=":3391061969_1" function="internal">
        <lane id=":3391061969_1_0" index="0" allow="pedestrian delivery bicycle" speed="5.56" length="6.82" shape="84.11,580.12 90.12,576.89"/>
    </edge>
    <edge id=":3391061969_w0" function="walkingarea">
        <lane id=":3391061969_w0_0" index="0" allow="pedestrian" speed="2.78" length="5.73" width="3.20" shape="90.85,578.31 89.39,575.47 88.28,575.66 87.57,575.56 86.76,575.33 85.83,574.96 84.80,574.47 83.33,577.30 83.92,577.77 83.99,578.00 83.92,578.24 83.71,578.48 83.34,578.72 84.88,581.52"/>
    </edge>
    <edge id=":3391061977_0" function="internal">
        <lane id=":3391061977_0_0" index="0" allow="pedestrian delivery bicycle" speed="5.56" length="11.31" shape="68.78,594.19 73.08,583.74"/>
    </edge>
    <edge id=":3391061977_1" function="internal">
        <lane id=":3391061977_1_0" index="0" allow="pedestrian delivery bicycle" speed="5.56" length="11.36" shape="68.78,594.19 70.20,591.39 71.78,589.49 73.74,587.89 76.31,585.95"/>
    </edge>
    <edge id=":3391061977_w0" function="walkingarea">
        <lane id=":3391061977_w0_0" index="0" allow="pedestrian" speed="2.78" length="8.80" width="3.20" shape="77.45,587.09 75.17,584.81 74.56,584.35 71.60,583.13 67.30,593.58 70.25,594.80 71.20,592.76 72.09,591.36 73.05,590.33 74.18,589.45 75.61,588.45"/>
    </edge>
    <edge id=":3391063393_0" function="internal">
        <lane id=":3391063393_0_0" index="0" allow="pedestrian delivery bicycle" speed="5.56" length="3.48" shape="92.93,742.16 92.87,741.15 92.70,740.45 92.37,739.81 91.81,738.95"/>
    </edge>
    <edge id=":3391063393_1" function="internal">
        <lane id=":3391063393_1_0" index="0" allow="pedestrian delivery bicycle" speed="5.56" length="3.48" shape="93.30,742.06 93.01,741.08 92.74,740.43 92.38,739.81 91.81,738.95"/>
    </edge>
    <edge id=":3391063393_w0" function="walkingarea">
        <lane id=":3391063393_w0_0" index="0" allow="pedestrian" speed="2.78" length="2.41" width="3.20" shape="91.33,742.59 94.85,741.65 94.41,740.24 94.21,739.77 93.95,739.31 93.61,738.78 93.14,738.07 90.47,739.84 91.04,740.76 91.19,741.12 91.27,741.50 91.31,741.97"/>
    </edge>
    <edge id=":3800668895_w0" function="walkingarea">
        <lane id=":3800668895_w0_0" index="0" allow="pedestrian" speed="2.78" length="8.40" width="2.00" shape="389.28,93.71 390.90,94.88 382.46,88.80 384.08,89.97"/>
    </edge>
    <edge id=":3800668917_0" function="internal">
        <lane id=":3800668917_0_0" index="0" disallow="pedestrian tram rail_urban rail rail_electric rail_fast ship container cable_car subway aircraft wheelchair scooter drone" speed="13.89" length="25.92" shape="319.84,272.20 313.73,273.94 309.44,278.04 305.60,283.31 300.79,288.54"/>
    </edge>
    <edge id=":3800668917_1" function="internal">
        <lane id=":3800668917_1_0" index="0" disallow="pedestrian tram rail_urban rail rail_electric rail_fast ship container cable_car subway aircraft wheelchair scooter drone" speed="9.35" length="3.55" shape="319.84,272.20 316.31,271.90"/>
    </edge>
    <edge id=":3800668917_6" function="internal">
        <lane id=":3800668917_6_0" index="0" disallow="pedestrian tram rail_urban rail rail_electric rail_fast ship container cable_car subway aircraft wheelchair scooter drone" speed="9.35" length="16.44" shape="316.31,271.90 313.63,271.67 309.18,269.78 306.50,266.53 305.59,261.92"/>
    </edge>
    <edge id=":3800668917_2" function="internal">
        <lane id=":3800668917_2_0" index="0" disallow="pedestrian tram rail_urban rail rail_electric rail_fast ship container cable_car subway aircraft wheelchair scooter drone" speed="7.39" length="12.09" shape="308.79,262.69 309.34,265.54 310.93,267.56 313.58,268.73 317.28,269.06"/>
    </edge>
    <edge id=":3800668917_3" function="internal">
        <lane id=":3800668917_3_0" index="0" disallow="pedestrian tram rail_urban rail rail_electric rail_fast ship container cable_car subway aircraft wheelchair scooter drone" speed="13.89" length="27.85" shape="308.79,262.69 308.33,271.45 306.85,278.68 304.33,284.38 300.79,288.54"/>
    </edge>
    <edge id=":3800668917_4" function="internal">
        <lane id=":3800668917_4_0" index="0" disallow="pedestrian tram rail_urban rail rail_electric rail_fast ship container cable_car subway aircraft wheelchair scooter drone" speed="13.89" length="21.62" shape="298.74,286.09 301.77,282.39 303.93,277.13 305.20,270.31 305.39,266.10"/>
    </edge>
    <edge id=":3800668917_5" function="internal">
        <lane id=":3800668917_5_0" index="0" disallow="pedestrian tram rail_urban rail rail_electric rail_fast ship container cable_car subway aircraft wheelchair scooter drone" speed="13.89" length="26.04" shape="298.74,286.09 303.46,280.75 307.13,275.25 311.25,270.91 317.28,269.06"/>
    </edge>
    <edge id=":3800668917_7" function="internal">
        <lane id=":3800668917_7_0" index="0" disallow="pedestrian tram rail_urban rail rail_electric rail_fast ship container cable_car subway aircraft wheelchair scooter drone" speed="13.89" length="4.19" shape="305.39,266.10 305.59,261.92"/>
    </edge>
    <edge id=":3800668917_c0" function="crossing" crossingEdges="376666916#0 -376666916#0">
        <lane id=":3800668917_c0_0" index="0" allow="pedestrian" speed="2.78" length="6.87" width="4.00" shape="315.25,267.50 317.88,273.84" outlineShape="317.06,266.64 319.76,273.17 315.89,274.26 312.73,266.64 313.45,266.99 315.16,267.36"/>
    </edge>
    <edge id=":3800668917_c1" function="crossing" crossingEdges="-376666932#0 376666932#0">
        <lane id=":3800668917_c1_0" index="0" allow="pedestrian" speed="2.78" length="6.45" width="4.00" shape="304.00,263.93 310.40,264.68" outlineShape="304.13,261.93 310.74,262.71 310.59,264.18 311.16,265.40 312.12,266.34 313.45,266.99 314.08,267.13 303.95,265.93 304.23,261.94 303.98,261.28 301.98,261.29 296.42,283.33 297.71,284.87 299.65,282.74 301.24,279.94 302.47,276.46 303.33,272.29 303.84,267.45 303.95,265.93"/>
    </edge>
    <edge id=":3800668917_c2" function="crossing" crossingEdges="376666932#1 -376666932#1">
        <lane id=":3800668917_c2_0" index="0" allow="pedestrian" speed="2.78" length="6.40" width="4.00" shape="303.35,288.48 299.24,283.58" outlineShape="301.82,289.77 297.71,284.87 299.65,282.74 300.26,281.68 304.61,286.87"/>
    </edge>
    <edge id=":3800668917_w0" function="walkingarea">
        <lane id=":3800668917_w0_0" index="0" allow="pedestrian" speed="2.78" length="17.34" width="4.00" shape="301.82,289.77 303.11,291.30 309.46,286.12 314.69,282.19 318.78,279.50 321.74,278.07 323.57,277.88 324.27,278.95 326.26,278.79 319.73,273.08 315.00,274.54 311.89,276.34 309.79,278.98 307.93,282.25 305.53,285.92"/>
    </edge>
    <edge id=":3800668917_w1" function="walkingarea">
        <lane id=":3800668917_w1_0" index="0" allow="pedestrian" speed="2.78" length="4.01" width="4.00" shape="317.10,266.73 315.23,267.50 315.18,265.50 312.39,263.31 310.39,263.32 310.64,262.69 310.59,264.18 311.16,265.40 312.12,266.34 313.45,266.99 315.16,267.36"/>
    </edge>
    <edge id=":3800668917_w2" function="walkingarea">
        <lane id=":3800668917_w2_0" index="0" allow="pedestrian" speed="2.78" length="15.46" width="4.00" shape="304.23,261.94 303.98,261.28 301.98,261.29 296.42,283.33 297.71,284.87 299.65,282.74 301.24,279.94 302.47,276.46 303.33,272.29 303.84,267.45"/>
    </edge>
    <edge id=":3800668923_0" function="internal">
        <lane id=":3800668923_0_0" index="0" disallow="pedestrian tram rail_urban rail rail_electric rail_fast ship container cable_car subway aircraft wheelchair scooter drone" speed="6.82" length="5.27" shape="356.29,353.18 354.08,352.26 351.98,352.32 351.29,352.68"/>
    </edge>
    <edge id=":3800668923_1" function="internal">
        <lane id=":3800668923_1_0" index="0" disallow="pedestrian tram rail_urban rail rail_electric rail_fast ship container cable_car subway aircraft wheelchair scooter drone" speed="13.89" length="14.43" shape="356.29,353.18 344.00,345.62"/>
    </edge>
    <edge id=":3800668923_6" function="internal">
        <lane id=":3800668923_6_0" index="0" disallow="pedestrian tram rail_urban rail rail_electric rail_fast ship container cable_car subway aircraft wheelchair scooter drone" speed="6.82" length="4.17" shape="351.29,352.68 350.01,353.34 348.15,355.34"/>
    </edge>
    <edge id=":3800668923_2" function="internal">
        <lane id=":3800668923_2_0" index="0" disallow="pedestrian tram rail_urban rail rail_electric rail_fast ship container cable_car subway aircraft wheelchair scooter drone" speed="13.89" length="14.43" shape="345.68,342.89 357.97,350.45"/>
    </edge>
    <edge id=":3800668923_3" function="internal">
        <lane id=":3800668923_3_0" index="0" disallow="pedestrian tram rail_urban rail rail_electric rail_fast ship container cable_car subway aircraft wheelchair scooter drone" speed="7.93" length="4.08" shape="345.68,342.89 348.81,345.50"/>
    </edge>
    <edge id=":3800668923_7" function="internal">
        <lane id=":3800668923_7_0" index="0" disallow="pedestrian tram rail_urban rail rail_electric rail_fast ship container cable_car subway aircraft wheelchair scooter drone" speed="7.93" length="10.65" shape="348.81,345.50 350.27,348.45 350.05,351.73 348.15,355.34"/>
    </edge>
    <edge id=":3800668923_4" function="internal">
        <lane id=":3800668923_4_0" index="0" disallow="pedestrian tram rail_urban rail rail_electric rail_fast ship container cable_car subway aircraft wheelchair scooter drone" speed="6.43" length="9.29" shape="345.56,353.46 346.76,351.18 346.90,349.12 345.98,347.26 344.00,345.62"/>
    </edge>
    <edge id=":3800668923_5" function="internal">
        <lane id=":3800668923_5_0" index="0" disallow="pedestrian tram rail_urban rail rail_electric rail_fast ship container cable_car subway aircraft wheelchair scooter drone" speed="8.26" length="14.32" shape="345.56,353.46 348.34,350.51 351.33,349.03 354.54,349.01 357.97,350.45"/>
    </edge>
    <edge id=":3800668923_c0" function="crossing" crossingEdges="376666916#1 -376666916#1">
        <lane id=":3800668923_c0_0" index="0" allow="pedestrian" speed="2.78" length="6.40" width="4.00" shape="357.10,348.04 353.75,353.49" outlineShape="358.81,349.09 355.45,354.54 355.40,354.62 355.45,354.54 354.37,354.03 353.33,353.83 352.31,353.96 351.33,354.41 350.37,355.19 355.40,346.99 358.81,349.09 359.85,347.38 347.57,339.82 346.52,341.53 349.92,343.62 355.40,346.99"/>
    </edge>
    <edge id=":3800668923_c1" function="crossing" crossingEdges="-376666916#0 376666916#0">
        <lane id=":3800668923_c1_0" index="0" allow="pedestrian" speed="2.78" length="6.40" width="4.00" shape="344.87,348.03 348.22,342.58" outlineShape="343.16,346.98 346.52,341.53 346.57,341.44 346.52,341.53 349.92,343.62 346.57,349.07 345.15,350.66 345.23,350.41 345.21,349.45 344.86,348.56 344.18,347.74"/>
    </edge>
    <edge id=":3800668923_c2" function="crossing" crossingEdges="-376666930#2 376666930#2">