<?xml version="1.0" encoding="UTF-8"?>

<!-- generated on 2026-04-15 02:53:37.342476 by Eclipse SUMO randomTrips.py v1.26.0
<configuration>
    <net-file value="/Users/junlee/Desktop/2026-1/js/result/2026-04-15_02-53-02/sumo_nets/cw_23040/network.net.xml"/>
    <output-trip-file value="/Users/junlee/Desktop/2026-1/js/result/2026-04-15_02-53-02/sumo_nets/cw_23040/routes_seed42.trips.xml"/>
    <route-file value="/Users/junlee/Desktop/2026-1/js/result/2026-04-15_02-53-02/sumo_nets/cw_23040/routes_seed42.rou.xml"/>
    <vehicle-class value="passenger"/>
    <end value="7200.0"/>
    <period value="3.9327242324431526"/>
</configuration>
-->

<!-- generated on 2026-04-15T02:53:37.303018+09:00 by Eclipse SUMO duarouter 1.26.0
<duarouterConfiguration xmlns:xsi="http://www.w3.org/2001/XMLSchema-instance" xsi:noNamespaceSchemaLocation="http://sumo.dlr.de/xsd/duarouterConfiguration.xsd">

    <input>
        <net-file value="/Users/junlee/Desktop/2026-1/js/result/2026-04-15_02-53-02/sumo_nets/cw_23040/network.net.xml"/>
        <route-files value="/Users/junlee/Desktop/2026-1/js/result/2026-04-15_02-53-02/sumo_nets/cw_23040/routes_seed42.trips.xml"/>
    </input>

    <output>
        <output-file value="/Users/junlee/Desktop/2026-1/js/result/2026-04-15_02-53-02/sumo_nets/cw_23040/routes_seed42.rou.xml"/>
        <alternatives-output value="NUL"/>
    </output>

    <time>
        <begin value="0.0"/>
        <end value="7200.0"/>
    </time>

    <report>
        <no-warnings value="true"/>
        <ignore-errors value="true"/>
        <no-step-log value="true"/>
    </report>

</duarouterConfiguration>
-->

<routes xmlns:xsi="http://www.w3.org/2001/XMLSchema-instance" xsi:noNamespaceSchemaLocation="http://sumo.dlr.de/xsd/routes_file.xsd">
    <vType id="passenger" vClass="passenger"/>
    <vehicle id="0" type="passenger" depart="0.00">
        <route edges="376666930#0 376666930#1 376666930#2 -376666916#0 376666932#1 -376666930#0 -224260190#2 -224260190#1 -224260190#0"/>
    </vehicle>
    <vehicle id="1" type="passenger" depart="3.93">
        <route edges="-516163750#0 -1339655668 -778973690 -384030401#1"/>
    </vehicle>
    <vehicle id="2" type="passenger" depart="7.87">
        <route edges="376666932#1 -376666930#0 -224260190#2 376666921 376666931#3 376666931#4"/>
    </vehicle>
    <vehicle id="3" type="passenger" depart="11.80">
        <route edges="585352852#0-AddedOffRampEdge 913268036 1206220504#1 -516163750#1 -516163750#0 -1339655668 -376666931#4 -376666931#3 -376666921"/>
    </vehicle>
    <vehicle id="4" type="passenger" depart="15.73">
        <route edges="1206220504#1 -516163750#1 -516163750#0 -1339655668 -376666931#4 -376666931#3 -376666921 -224260190#1 -224260190#0"/>
    </vehicle>
    <vehicle id="5" type="passenger" depart="19.66">
        <route edges="-224260190#1 -224260190#0 -516163750#1 -516163750#0 -1339655668 -376666931#4 -376666931#3 -376666921 224260190#2 376666930#0 -376666932#1"/>
    </vehicle>
    <vehicle id="6" type="passenger" depart="23.60">
        <route edges="376666930#1 376666930#2 -376666916#0 376666932#1 -376666930#0 -224260190#2 -224260190#1 -224260190#0 1206220503#0 1206220503#1 333554718"/>
    </vehicle>
    <vehicle id="7" type="passenger" depart="27.53">
        <route edges="-384030401#2 -384030401#1 -384030401#0 224260190#0 224260190#1 224260190#2 376666930#0 376666930#1 376666930#2 376666916#1 376666916#2"/>
    </vehicle>
    <vehicle id="8" type="passenger" depart="31.46">
        <route edges="464445692#1 -384030401#0 -516163750#1 -516163750#0 -1339655668"/>
    </vehicle>
    <vehicle id="9" type="passenger" depart="35.39">
        <route edges="464445692#1 384030401#1 778973690 1339655668 516163750#0 516163750#1 384030401#0"/>
    </vehicle>
    <vehicle id="10" type="passenger" depart="39.33">
        <route edges="-376666921 224260190#2 376666930#0 376666930#1 376666930#2 -376666916#0 376666932#1 -376666930#0"/>
    </vehicle>
    <vehicle id="11" type="passenger" depart="43.26">
        <route edges="464445692#1 -384030401#0 1206220503#0 1206220503#1 464445691#0"/>
    </vehicle>
    <vehicle id="12" type="passenger" depart="47.19">
        <route edges="224260190#2 376666930#0 376666930#1 376666930#2 -376666916#0 376666932#1 -376666930#0 -224260190#2 -224260190#1 -224260190#0 1206220503#0 1206220503#1 333554718 37402371 585341906#0 585341906#2 1206223946#1 767111811#1 767111811#2"/>
    </vehicle>
    <vehicle id="13" type="passenger" depart="51.13">
        <route edges="-778973690 -384030401#1 -384030401#0 1206220503#0 1206220503#1 333554718 37402371"/>
    </vehicle>
    <vehicle id="14" type="passenger" depart="55.06">
        <route edges="516163750#1 224260190#0 224260190#1 224260190#2 376666930#0 376666930#1"/>
    </vehicle>
    <vehicle id="15" type="passenger" depart="58.99">
        <route edges="376666931#3 376666931#4 1339655668 516163750#0 516163750#1 224260190#0 224260190#1 224260190#2 376666930#0 376666930#1 376666930#2 -376666916#0 376666932#1 -376666930#0 -224260190#2"/>
    </vehicle>
    <vehicle id="16" type="passenger" depart="62.92">
        <route edges="-778973690 -384030401#1 -384030401#0"/>
    </vehicle>
    <vehicle id="17" type="passenger" depart="66.86">
        <route edges="376666930#1 376666930#2 -376666916#0 376666932#1 -376666930#0 -224260190#2 -224260190#1 -224260190#0 -516163750#1 -516163750#0 -1339655668 -376666931#4 -376666931#3 -376666921 224260190#2 376666930#0"/>
    </vehicle>
    <vehicle id="18" type="passenger" depart="70.79">
        <route edges="-376666931#3 -376666921 -224260190#1 -224260190#0 1206220503#0 1206220503#1 464445691#0"/>
    </vehicle>
    <vehicle id="19" type="passenger" depart="74.72">
        <route edges="331990404#1 331990404#3 1206220504#0 1206220504#1 224260190#0 224260190#1 224260190#2 376666930#0 376666930#1 376666930#2 -376666916#0 376666932#1"/>
    </vehicle>
    <vehicle id="20" type="passenger" depart="78.65">
        <route edges="-384030401#2 778973690 -376666931#4 -376666931#3 -376666921 -224260190#1 -224260190#0"/>
    </vehicle>
    <vehicle id="21" type="passenger" depart="82.59">
        <route edges="615671505#0 331990404#0 331990404#1 331990404#3 1206220504#0 1206220504#1 224260190#0"/>
    </vehicle>
    <vehicle id="22" type="passenger" depart="86.52">
        <route edges="331990404#1 331990404#3 1206220504#0 1206220504#1 -516163750#1"/>
    </vehicle>
    <vehicle id="23" type="passenger" depart="90.45">
        <route edges="1206220503#1 464445691#0 464445691#1 464445692#0 464445692#1 -384030401#0 -516163750#1 -516163750#0 -1339655668 -778973690 -384030401#1"/>
    </vehicle>
    <vehicle id="24" type="passenger" depart="94.39">
        <route edges="-376666916#2 -376666916#1 -376666930#2 -376666930#1 -376666930#0 -224260190#2"/>
    </vehicle>
    <vehicle id="25" type="passenger" depart="98.32">
        <route edges="-376666930#0 -224260190#2 -224260190#1 -224260190#0 -516163750#1 -516163750#0 -1339655668 -376666931#4 -376666931#3 -376666921 224260190#2 376666930#0 376666930#1 376666930#2"/>
    </vehicle>
    <vehicle id="26" type="passenger" depart="102.25">
        <route edges="-1339655668 -778973690 384030401#2"/>
    </vehicle>
    <vehicle id="27" type="passenger" depart="106.18">
        <route edges="376666931#1 376666931#2 376666931#3 376666931#4 1339655668 516163750#0 516163750#1 1206220503#0 1206220503#1 333554718"/>
    </vehicle>
    <vehicle id="28" type="passenger" depart="110.12">
        <route edges="-376666930#0 -224260190#2 -224260190#1 -224260190#0 1206220503#0 1206220503#1 333554718 219696191#0"/>
    </vehicle>
    <vehicle id="29" type="passenger" depart="114.05">
        <route edges="585352852#0 585352852#0-AddedOffRampEdge 913268036 1206220504#1 -516163750#1"/>
    </vehicle>
    <vehicle id="30" type="passenger" depart="117.98">
        <route edges="376666916#0 -376666930#2 -376666930#1 -376666930#0 -224260190#2 -224260190#1 -224260190#0 -516163750#1 -516163750#0 -1339655668 -376666931#4 -376666931#3 -376666931#2"/>
    </vehicle>
    <vehicle id="31" type="passenger" depart="121.91">
        <route edges="384030401#1 778973690 1339655668 516163750#0 516163750#1 1206220503#0 1206220503#1 333554718"/>
    </vehicle>
    <vehicle id="32" type="passenger" depart="125.85">
        <route edges="-1339655668 -778973690"/>
    </vehicle>
    <vehicle id="33" type="passenger" depart="129.78">
        <route edges="585352852#0 585352852#0-AddedOffRampEdge 585352852#1 218962181 333554718 37402371 585341907#0"/>
    </vehicle>
    <vehicle id="34" type="passenger" depart="133.71">
        <route edges="-631259844 464445692#0 464445692#1 -384030401#0 224260190#0 224260190#1 224260190#2 376666930#0 376666930#1 376666930#2 -376666916#0"/>
    </vehicle>
    <vehicle id="35" type="passenger" depart="137.65">
        <route edges="-376666916#2 -376666916#1 -376666930#2 -376666930#1 -376666930#0 -224260190#2 -224260190#1 -224260190#0 -516163750#1 -516163750#0 -1339655668 -376666931#4 -376666931#3 -376666921 224260190#2"/>
    </vehicle>
    <vehicle id="36" type="passenger" depart="141.58">
        <route edges="-376666916#1 -376666930#2 -376666930#1 -376666930#0 -224260190#2 -224260190#1 -224260190#0 1206220503#0 1206220503#1 464445691#0 464445691#1 464445691#3"/>
    </vehicle>
    <vehicle id="37" type="passenger" depart="145.51">
        <route edges="384030401#1 778973690 -376666931#4 -376666931#3 -376666931#2 -376666931#1 -376666931#0"/>
    </vehicle>
    <vehicle id="38" type="passenger" depart="149.44">
        <route edges="218962181 333554718 37402371"/>
    </vehicle>
    <vehicle id="39" type="passenger" depart="153.38">
        <route edges="1206220504#1 -516163750#1 -516163750#0 -1339655668 -778973690 -384030401#1 -384030401#0"/>
    </vehicle>
    <vehicle id="40" type="passenger" depart="157.31">
        <route edges="224260190#2 376666930#0 376666930#1 376666930#2 -376666916#0 376666932#1 -376666930#0 -224260190#2 -224260190#1 -224260190#0 1206220503#0 1206220503#1 464445691#0"/>
    </vehicle>
    <vehicle id="41" type="passenger" depart="161.24">
        <route edges="-376666930#1 -376666930#0 -224260190#2 -224260190#1 -224260190#0 -516163750#1 -516163750#0 -1339655668 -778973690 -384030401#1"/>
    </vehicle>
    <vehicle id="42" type="passenger" depart="165.17">
        <route edges="-376666916#1 -376666916#0 376666932#1 376666930#1 376666930#2"/>
    </vehicle>
    <vehicle id="43" type="passenger" depart="169.11">
        <route edges="-384030401#2 778973690 1339655668 516163750#0 516163750#1 1206220503#0 1206220503#1 464445691#0 464445691#1 464445692#0 631259843"/>
    </vehicle>
    <vehicle id="44" type="passenger" depart="173.04">
        <route edges="-384030401#1 -384030401#0 -516163750#1 -516163750#0 -1339655668 -376666931#4 -376666931#3 -376666931#2 -376666931#1 -376666931#0"/>
    </vehicle>
    <vehicle id="45" type="passenger" depart="176.97">
        <route edges="218962181 464445691#0 464445691#1 464445692#0 464445692#1 384030401#1 778973690 1339655668 516163750#0"/>
    </vehicle>
    <vehicle id="46" type="passenger" depart="180.91">
        <route edges="464445692#1 -384030401#0 224260190#0 224260190#1 224260190#2 376666930#0 -376666932#1 -376666932#0"/>
    </vehicle>
    <vehicle id="47" type="passenger" depart="184.84">
        <route edges="1206220504#1 224260190#0 224260190#1"/>
    </vehicle>
    <vehicle id="48" type="passenger" depart="188.77">
        <route edges="376666932#0 376666932#1 -376666930#0 -224260190#2 376666921 376666931#3 376666931#4"/>
    </vehicle>
    <vehicle id="49" type="passenger" depart="192.70">
        <route edges="778973690 1339655668 516163750#0 516163750#1 224260190#0 224260190#1 224260190#2 376666930#0 376666930#1 376666930#2 -376666916#0 376666932#1 -376666930#0"/>
    </vehicle>
    <vehicle id="50" type="passenger" depart="196.64">
        <route edges="1206220504#0 1206220504#1 -516163750#1 -516163750#0 -1339655668 -376666931#4 -376666931#3 -376666921 -224260190#1 -224260190#0 1206220503#0"/>
    </vehicle>
    <vehicle id="51" type="passenger" depart="200.57">
        <route edges="-376666932#1 376666916#0 -376666930#2 -376666930#1 -376666930#0 -224260190#2 -224260190#1 -224260190#0 1206220503#0 1206220503#1 333554718 219696191#0 219696191#1"/>
    </vehicle>
    <vehicle id="52" type="passenger" depart="204.50">
        <route edges="331990404#0 331990404#1 331990404#3 1206220504#0 1206220504#1 224260190#0 224260190#1 224260190#2 376666930#0 376666930#1 376666930#2 -376666916#0 376666932#1 -376666930#0 -224260190#2"/>
    </vehicle>
    <vehicle id="53" type="passenger" depart="208.43">
        <route edges="913268036 1206220504#1 -516163750#1 -516163750#0 -1339655668 -376666931#4 -376666931#3 -376666921 -224260190#1 -224260190#0 1206220503#0 1206220503#1 333554718 37402371 585341907#0"/>
    </vehicle>
    <vehicle id="54" type="passenger" depart="212.37">
        <route edges="1206220503#1 464445691#0 464445691#1 464445692#0 464445692#1 -384030401#0 224260190#0 224260190#1 224260190#2 376666930#0 376666930#1 376666930#2 -376666916#0"/>
    </vehicle>
    <vehicle id="55" type="passenger" depart="216.30">
        <route edges="-778973690 -384030401#1 -384030401#0 1206220503#0 1206220503#1 464445691#0 464445691#1 464445692#0 464445692#1 384030401#1 778973690"/>
    </vehicle>
    <vehicle id="56" type="passenger" depart="220.23">
        <route edges="-516163750#0 -1339655668 -376666931#4 -376666931#3 -376666921 -224260190#1 -224260190#0 1206220503#0 1206220503#1 464445691#0 464445691#1 464445692#0 464445692#1"/>
    </vehicle>
    <vehicle id="57" type="passenger" depart="224.17">
        <route edges="331990404#1 331990404#3 1206220504#0 1206220504#1 -516163750#1 -516163750#0 -1339655668 -778973690 384030401#2"/>
    </vehicle>
    <vehicle id="58" type="passenger" depart="228.10">
        <route edges="331990404#0 331990404#1 1206220507#0 464445691#0 464445691#1"/>
    </vehicle>
    <vehicle id="59" type="passenger" depart="232.03">
        <route edges="-224260190#3 376666930#0 376666930#1 376666930#2 376666916#1 376666916#2"/>
    </vehicle>
    <vehicle id="60" type="passenger" depart="235.96">
        <route edges="-376666916#1 -376666916#0 -376666932#0"/>
    </vehicle>
    <vehicle id="61" type="passenger" depart="239.90">
        <route edges="1206220504#1 224260190#0 224260190#1 224260190#2 376666930#0 376666930#1 376666930#2 376666916#1 376666916#2"/>
    </vehicle>
    <vehicle id="62" type="passenger" depart="243.83">
        <route edges="-384030401#0 -516163750#1 -516163750#0 -1339655668 -778973690 384030401#2"/>
    </vehicle>
    <vehicle id="63" type="passenger" depart="247.76">
        <route edges="-376666916#1 -376666930#2 -376666930#1 -376666930#0 -224260190#2 376666921 376666931#3 376666931#4 1339655668 516163750#0 516163750#1 224260190#0"/>
    </vehicle>
    <vehicle id="64" type="passenger" depart="251.69">
        <route edges="913268036"/>
    </vehicle>
    <vehicle id="65" type="passenger" depart="255.63">
        <route edges="-376666916#1 -376666930#2 -376666930#1 -376666930#0 -224260190#2 -224260190#1 -224260190#0 1206220503#0 1206220503#1 464445691#0 464445691#1 464445692#0 464445692#1 -384030401#0"/>
    </vehicle>
    <vehicle id="66" type="passenger" depart="259.56">
        <route edges="-778973690 -384030401#1 -384030401#0 -516163750#1 -516163750#0 -1339655668 -376666931#4 -376666931#3 -376666931#2"/>
    </vehicle>
    <vehicle id="67" type="passenger" depart="263.49">
        <route edges="516163750#1 384030401#0"/>
    </vehicle>
    <vehicle id="68" type="passenger" depart="267.43">
        <route edges="376666930#1 376666930#2 -376666916#0 376666932#1 -376666930#0 -224260190#2 -224260190#1 -224260190#0 -516163750#1 -516163750#0 -1339655668"/>
    </vehicle>
    <vehicle id="69" type="passenger" depart="271.36">
        <route edges="-376666930#2"/>
    </vehicle>
    <vehicle id="70" type="passenger" depart="275.29">
        <route edges="-376666930#0 -224260190#2 -224260190#1 -224260190#0 1206220503#0 1206220503#1 333554718 37402371"/>
    </vehicle>
    <vehicle id="71" type="passenger" depart="279.22">
        <route edges="-516163750#0 -1339655668 -376666931#4 -376666931#3 -376666921 224260190#2 376666930#0"/>
    </vehicle>
    <vehicle id="72" type="passenger" depart="283.16">
        <route edges="376666931#4 1339655668 516163750#0 516163750#1 224260190#0 224260190#1 224260190#2 376666930#0 -376666932#1"/>
    </vehicle>
    <vehicle id="73" type="passenger" depart="287.09">
        <route edges="376666930#0 376666930#1 376666930#2 -376666916#0 376666932#1 -376666930#0 -224260190#2 -224260190#1 -224260190#0 -516163750#1"/>
    </vehicle>
    <vehicle id="74" type="passenger" depart="291.02">
        <route edges="-1339655668 -376666931#4 -376666931#3 -376666921 -224260190#1 -224260190#0 1206220503#0 1206220503#1 464445691#0 464445691#1 464445692#0"/>
    </vehicle>
    <vehicle id="75" type="passenger" depart="294.95">
        <route edges="376666930#0 376666930#1 376666930#2 -376666916#0 376666932#1 -376666930#0 -224260190#2 -224260190#1 -224260190#0 -516163750#1"/>
    </vehicle>
    <vehicle id="76" type="passenger" depart="298.89">
        <route edges="376666932#1 -376666930#0 -224260190#2 -224260190#1 -224260190#0 1206220503#0 1206220503#1 333554718 37402371"/>
    </vehicle>
    <vehicle id="77" type="passenger" depart="302.82">
        <route edges="1206220507#0 464445691#0 464445691#1 464445692#0 464445692#1 -384030401#0 -516163750#1 -516163750#0 -1339655668"/>
    </vehicle>
    <vehicle id="78" type="passenger" depart="306.75">
        <route edges="585352852#1 218962181 333554718 37402371"/>
    </vehicle>
    <vehicle id="79" type="passenger" depart="310.69">
        <route edges="516163750#1 224260190#0 224260190#1 224260190#2 376666930#0 376666930#1 376666930#2 376666916#1 376666916#2"/>
    </vehicle>
    <vehicle id="80" type="passenger" depart="314.62">
        <route edges="-376666931#1 -376666931#0"/>
    </vehicle>
    <vehicle id="81" type="passenger" depart="318.55">
        <route edges="-631259844 464445692#0 631259843"/>
    </vehicle>
    <vehicle id="82" type="passenger" depart="322.48">
        <route edges="585352852#1 218962181 464445691#0 464445691#1 464445692#0 464445692#1 -384030401#0"/>
    </vehicle>
    <vehicle id="83" type="passenger" depart="326.42">
        <route edges="1206220504#0 1206220504#1 224260190#0 224260190#1 224260190#2 376666930#0 376666930#1"/>
    </vehicle>
    <vehicle id="84" type="passenger" depart="330.35">
        <route edges="-224260190#1 -224260190#0 1206220503#0 1206220503#1 464445691#0"/>
    </vehicle>
    <vehicle id="85" type="passenger" depart="334.28">
        <route edges="464445692#1 -384030401#0 -516163750#1"/>
    </vehicle>
    <vehicle id="86" type="passenger" depart="338.21">
        <route edges="464445691#1 464445692#0 464445692#1 -384030401#0 224260190#0 224260190#1 224260190#2 376666930#0 -376666932#1 376666916#0 -376666930#2 -376666930#1"/>
    </vehicle>
    <vehicle id="87" type="passenger" depart="342.15">
        <route edges="-384030401#2 778973690 1339655668 516163750#0 516163750#1 1206220503#0 1206220503#1 333554718 37402371 585341906#0"/>
    </vehicle>
    <vehicle id="88" type="passenger" depart="346.08">
        <route edges="-224260190#1 -224260190#0 -516163750#1 -516163750#0 -1339655668 -376666931#4 -376666931#3 -376666921 224260190#2 376666930#0 -376666932#1 -376666932#0"/>
    </vehicle>
    <vehicle id="89" type="passenger" depart="350.01">
        <route edges="376666930#0 376666930#1 376666930#2 -376666916#0 376666932#1 -376666930#0 -224260190#2 -224260190#1 -224260190#0 1206220503#0 1206220503#1 333554718 37402371 585341906#0 585341906#2 1206223946#1"/>
    </vehicle>
    <vehicle id="90" type="passenger" depart="353.95">
        <route edges="778973690 1339655668 516163750#0 516163750#1 1206220503#0 1206220503#1 333554718"/>
    </vehicle>
    <vehicle id="91" type="passenger" depart="357.88">
        <route edges="-376666930#0 -224260190#2 -224260190#1 -224260190#0 1206220503#0 1206220503#1 333554718 219696191#0"/>
    </vehicle>
    <vehicle id="92" type="passenger" depart="361.81">
        <route edges="1206220503#0 1206220503#1 464445691#0 464445691#1 464445692#0 464445692#1 -384030401#0 224260190#0 224260190#1 224260190#2 376666930#0 376666930#1 376666930#2 376666916#1"/>
    </vehicle>
    <vehicle id="93" type="passenger" depart="365.74">
        <route edges="-464445691#3 464445692#0 464445692#1 384030401#1"/>
    </vehicle>
    <vehicle id="94" type="passenger" depart="369.68">
        <route edges="224260190#2 376666930#0 376666930#1 376666930#2 -376666916#0 376666932#1 -376666930#0 -224260190#2 -224260190#1 -224260190#0 384030401#0 384030401#1 384030401#2"/>
    </vehicle>
    <vehicle id="95" type="passenger" depart="373.61">
        <route edges="376666932#1 -376666930#0 -224260190#2 376666921 376666931#3 376666931#4"/>
    </vehicle>
    <vehicle id="96" type="passenger" depart="377.54">
        <route edges="376666930#2 -376666916#0 376666932#1 -376666930#0 -224260190#2 -224260190#1 -224260190#0 1206220503#0"/>
    </vehicle>
    <vehicle id="97" type="passenger" depart="381.47">
        <route edges="-631259844 -464445691#1 -464445691#0 333554718 37402371 585341906#0 585341906#2 1206223946#1"/>
    </vehicle>
    <vehicle id="98" type="passenger" depart="385.41">
        <route edges="-376666930#2 -376666930#1 -376666930#0 -224260190#2 376666921 376666931#3 376666931#4 1339655668"/>
    </vehicle>
    <vehicle id="99" type="passenger" depart="389.34">
        <route edges="585352852#1 1206220504#0 1206220504#1 224260190#0 224260190#1 224260190#2 376666930#0 376666930#1"/>
    </vehicle>
    <vehicle id="100" type="passenger" depart="393.27">
        <route edges="-631259844 -464445691#1 -464445691#0 333554718 37402371"/>
    </vehicle>
    <vehicle id="101" type="passenger" depart="397.21">
        <route edges="1206220507#0 464445691#0 464445691#1 464445692#0 464445692#1 -384030401#0 224260190#0 224260190#1 224260190#2 376666930#0 376666930#1 376666930#2 376666916#1 376666916#2"/>
    </vehicle>
    <vehicle id="102" type="passenger" depart="401.14">
        <route edges="376666930#1 376666930#2 -376666916#0 376666932#1 -376666930#0 -224260190#2 376666921 376666931#3 376666931#4 1339655668 516163750#0 516163750#1 224260190#0"/>
    </vehicle>
    <vehicle id="103" type="passenger" depart="405.07">
        <route edges="218962181 464445691#0 464445691#1 464445692#0 631259843"/>
    </vehicle>
    <vehicle id="104" type="passenger" depart="409.00">
        <route edges="464445692#0 464445692#1 -384030401#0 -516163750#1 -516163750#0 -1339655668 -376666931#4 -376666931#3"/>
    </vehicle>
    <vehicle id="105" type="passenger" depart="412.94">
        <route edges="376666930#0 376666930#1 376666930#2 -376666916#0 376666932#1 -376666930#0 -224260190#2 -224260190#1 -224260190#0 1206220503#0"/>
    </vehicle>
    <vehicle id="106" type="passenger" depart="416.87">
        <route edges="516163750#0 516163750#1 1206220503#0 1206220503#1 464445691#0 464445691#1 464445691#3"/>
    </vehicle>
    <vehicle id="107" type="passenger" depart="420.80">
        <route edges="376666931#0 376666931#1 376666931#2 376666931#3 376666931#4 -778973690 -384030401#1"/>
    </vehicle>
    <vehicle id="108" type="passenger" depart="424.73">
        <route edges="-384030401#0 -516163750#1 -516163750#0 -1339655668 -376666931#4 -376666931#3 -376666921 -224260190#1 -224260190#0"/>
    </vehicle>
    <vehicle id="109" type="passenger" depart="428.67">
        <route edges="1206220504#1 224260190#0 224260190#1 224260190#2 376666930#0 376666930#1 376666930#2"/>
    </vehicle>
    <vehicle id="110" type="passenger" depart="432.60">
        <route edges="-376666932#1 376666916#0 -376666930#2 -376666930#1 -376666930#0 -224260190#2 -224260190#1 -224260190#0 384030401#0"/>
    </vehicle>
    <vehicle id="111" type="passenger" depart="436.53">
        <route edges="376666930#2 -376666916#0 376666932#1 -376666930#0 -224260190#2 -224260190#1 -224260190#0 -516163750#1 -516163750#0 -1339655668"/>
    </vehicle>
    <vehicle id="112" type="passenger" depart="440.47">
        <route edges="384030401#0 384030401#1 778973690 1339655668 516163750#0 516163750#1 1206220503#0 1206220503#1 464445691#0 464445691#1 464445692#0"/>
    </vehicle>
    <vehicle id="113" type="passenger" depart="444.40">
        <route edges="-376666931#4 -376666931#3 -376666921 -224260190#1 -224260190#0 1206220503#0 1206220503#1 333554718 37402371 585341906#0 585341906#2 1206223946#1 767111811#1"/>
    </vehicle>
    <vehicle id="114" type="passenger" depart="448.33">
        <route edges="224260190#1 224260190#2 376666930#0 376666930#1 376666930#2 -376666916#0 376666932#1 -376666930#0 -224260190#2"/>
    </vehicle>
    <vehicle id="115" type="passenger" depart="452.26">
        <route edges="-464445691#1 -464445691#0 333554718 37402371 585341907#0 585341907#2"/>
    </vehicle>
    <vehicle id="116" type="passenger" depart="456.20">
        <route edges="1339655668 516163750#0 516163750#1"/>
    </vehicle>
    <vehicle id="117" type="passenger" depart="460.13">
        <route edges="376666931#0 376666931#1 376666931#2 376666931#3 376666931#4 1339655668 516163750#0 516163750#1 384030401#0 384030401#1 778973690"/>
    </vehicle>
    <vehicle id="118" type="passenger" depart="464.06">
        <route edges="585352852#0-AddedOffRampEdge 913268036 1206220504#1 224260190#0 224260190#1 224260190#2 376666930#0"/>
    </vehicle>
    <vehicle id="119" type="passenger" depart="467.99">
        <route edges="516163750#1 1206220503#0 1206220503#1 333554718 37402371"/>
    </vehicle>
    <vehicle id="120" type="passenger" depart="471.93">
        <route edges="585352852#1 218962181 464445691#0 464445691#1"/>
    </vehicle>
    <vehicle id="121" type="passenger" depart="475.86">
        <route edges="218962181 464445691#0 464445691#1 464445692#0 464445692#1 -384030401#0 -516163750#1 -516163750#0"/>
    </vehicle>
    <vehicle id="122" type="passenger" depart="479.79">
        <route edges="-516163750#0 -1339655668 -778973690"/>
    </vehicle>
    <vehicle id="123" type="passenger" depart="483.73">
        <route edges="224260190#2 376666930#0 376666930#1 376666930#2 -376666916#0 376666932#1 -376666930#0 -224260190#2 -224260190#1 -224260190#0 -516163750#1 -516163750#0 -1339655668 -376666931#4 -376666931#3 -376666931#2 -376666931#1"/>
    </vehicle>
    <vehicle id="124" type="passenger" depart="487.66">
        <route edges="376666931#3 376666931#4 1339655668 516163750#0 516163750#1 224260190#0 224260190#1 224260190#2 376666930#0 376666930#1 376666930#2 -376666916#0"/>
    </vehicle>
    <vehicle id="125" type="passenger" depart="491.59">
        <route edges="1206220504#0 1206220504#1 -516163750#1 -516163750#0 -1339655668 -376666931#4 -376666931#3 -376666921 -224260190#1 -224260190#0 1206220503#0 1206220503#1 333554718"/>
    </vehicle>
    <vehicle id="126" type="passenger" depart="495.52">
        <route edges="1206220504#1 -516163750#1 -516163750#0 -1339655668 -778973690 -384030401#1 -384030401#0"/>
    </vehicle>
    <vehicle id="127" type="passenger" depart="499.46">
        <route edges="1206220504#1 -516163750#1 -516163750#0 -1339655668 -376666931#4 -376666931#3 -376666921 -224260190#1 -224260190#0 1206220503#0 1206220503#1 464445691#0 464445691#1 464445692#0 631259843"/>
    </vehicle>
    <vehicle id="128" type="passenger" depart="503.39">
        <route edges="1206220503#0 1206220503#1 464445691#0 464445691#1 464445692#0 464445692#1 -384030401#0 -516163750#1 -516163750#0 -1339655668"/>
    </vehicle>
    <vehicle id="129" type="passenger" depart="507.32">
        <route edges="1206220504#1 -516163750#1 -516163750#0 -1339655668 -376666931#4 -376666931#3 -376666921 -224260190#1 -224260190#0 1206220503#0 1206220503#1 464445691#0 464445691#1"/>
    </vehicle>
    <vehicle id="130" type="passenger" depart="511.25">
        <route edges="331990404#0 331990404#1 331990404#3 1206220504#0 1206220504#1 224260190#0 224260190#1 224260190#2 376666930#0"/>
    </vehicle>
    <vehicle id="131" type="passenger" depart="515.19">
        <route edges="-384030401#2 -384030401#1"/>
    </vehicle>
    <vehicle id="132" type="passenger" depart="519.12">
        <route edges="1206220507#0 464445691#0 464445691#1 464445692#0 464445692#1 -384030401#0 -516163750#1 -516163750#0 -1339655668 -376666931#4 -376666931#3 -376666921 -224260190#1 -224260190#0"/>
    </vehicle>
    <vehicle id="133" type="passenger" depart="523.05">
        <route edges="1206220504#0 1206220504#1 -516163750#1 -516163750#0 -1339655668 -376666931#4 -376666931#3"/>
    </vehicle>
    <vehicle id="134" type="passenger" depart="526.99">
        <route edges="1339655669 -376666931#4 -376666931#3 -376666931#2 -376666931#1 -376666931#0"/>
    </vehicle>
    <vehicle id="135" type="passenger" depart="530.92">
        <route edges="376666921 376666931#3 376666931#4 1339655668 516163750#0 516163750#1 384030401#0 384030401#1 778973690 -376666931#4 -376666931#3 -376666921 -224260190#1 -224260190#0"/>
    </vehicle>
    <vehicle id="136" type="passenger" depart="534.85">
        <route edges="1206220503#1 464445691#0 464445691#1 464445692#0 464445692#1 -384030401#0 224260190#0 224260190#1 224260190#2 376666930#0 -376666932#1 376666916#0"/>
    </vehicle>
    <vehicle id="137" type="passenger" depart="538.78">
        <route edges="-376666930#2 -376666930#1 -376666930#0 -224260190#2 376666921 376666931#3 376666931#4 1339655668 516163750#0 516163750#1 224260190#0"/>
    </vehicle>
    <vehicle id="138" type="passenger" depart="542.72">
        <route edges="-384030401#1 -384030401#0 -516163750#1 -516163750#0 -1339655668 -778973690"/>
    </vehicle>
    <vehicle id="139" type="passenger" depart="546.65">