<?xml version='1.0' encoding='utf-8'?>
<routes>
  <vType id="adult" vClass="pedestrian" minGap="0.25" width="0.5" length="0.25" maxSpeed="1.5" speedDev="0.1" />
  <vType id="elderly" vClass="pedestrian" minGap="0.25" width="0.5" length="0.25" maxSpeed="1.13" speedDev="0.15" color="255,0,0" />
  <person id="ped_0" depart="4.31" type="adult">
    <walk from="464445691#0" to="-464445691#0" />
  </person>
  <person id="ped_1" depart="6.54" type="adult">
    <walk from="464445691#0" to="-464445691#0" />
  </person>
  <person id="ped_2" depart="12.38" type="adult">
    <walk from="464445691#0" to="-464445691#0" />
  </person>
  <person id="ped_3" depart="12.57" type="adult">
    <walk from="464445691#0" to="-464445691#0" />
  </person>
  <person id="ped_4" depart="21.58" type="adult">
    <walk from="464445691#0" to="-464445691#0" />
  </person>
  <person id="ped_5" depart="29.12" type="adult">
    <walk from="464445691#0" to="-464445691#0" />
  </person>
  <person id="ped_6" depart="32.84" type="elderly">
    <walk from="464445691#0" to="-464445691#0" />
  </person>
  <person id="ped_7" depart="35.47" type="adult">
    <walk from="464445691#0" to="-464445691#0" />
  </person>
  <person id="ped_8" depart="43.48" type="adult">
    <walk from="464445691#0" to="-464445691#0" />
  </person>
  <person id="ped_9" depart="53.42" type="adult">
    <walk from="464445691#0" to="-464445691#0" />
  </person>
  <person id="ped_10" depart="53.83" type="elderly">
    <walk from="464445691#0" to="-464445691#0" />
  </person>
  <person id="ped_11" depart="59.09" type="elderly">
    <walk from="464445691#0" to="-464445691#0" />
  </person>
  <person id="ped_12" depart="60.98" type="adult">
    <walk from="464445691#0" to="-464445691#0" />
  </person>
  <person id="ped_13" depart="64.40" type="adult">
    <walk from="464445691#0" to="-464445691#0" />
  </person>
  <person id="ped_14" depart="65.81" type="adult">
    <walk from="464445691#0" to="-464445691#0" />
  </person>
  <person id="ped_15" depart="70.02" type="adult">
    <walk from="464445691#0" to="-464445691#0" />
  </person>
  <person id="ped_16" depart="71.19" type="adult">
    <walk from="464445691#0" to="-464445691#0" />
  </person>
  <person id="ped_17" depart="72.55" type="elderly">
    <walk from="464445691#0" to="-464445691#0" />
  </person>
  <person id="ped_18" depart="79.64" type="adult">
    <walk from="464445691#0" to="-464445691#0" />
  </person>
  <person id="ped_19" depart="81.34" type="adult">
    <walk from="464445691#0" to="-464445691#0" />
  </person>
  <person id="ped_20" depart="85.25" type="adult">
    <walk from="464445691#0" to="-464445691#0" />
  </person>
  <person id="ped_21" depart="86.27" type="adult">
    <walk from="464445691#0" to="-464445691#0" />
  </person>
  <person id="ped_22" depart="87.84" type="elderly">
    <walk from="464445691#0" to="-464445691#0" />
  </person>
  <person id="ped_23" depart="94.18" type="adult">
    <walk from="464445691#0" to="-464445691#0" />
  </person>
  <person id="ped_24" depart="96.66" type="adult">
    <walk from="464445691#0" to="-464445691#0" />
  </person>
  <person id="ped_25" depart="114.52" type="adult">
    <walk from="464445691#0" to="-464445691#0" />
  </person>
  <person id="ped_26" depart="127.60" type="adult">
    <walk from="464445691#0" to="-464445691#0" />
  </person>
  <person id="ped_27" depart="128.58" type="elderly">
    <walk from="464445691#0" to="-464445691#0" />
  </person>
  <person id="ped_28" depart="137.72" type="elderly">
    <walk from="464445691#0" to="-464445691#0" />
  </person>
  <person id="ped_29" depart="139.26" type="adult">
    <walk from="464445691#0" to="-464445691#0" />
  </person>
  <person id="ped_30" depart="148.86" type="elderly">
    <walk from="464445691#0" to="-464445691#0" />
  </person>
  <person id="ped_31" depart="154.48" type="adult">
    <walk from="464445691#0" to="-464445691#0" />
  </person>
  <person id="ped_32" depart="159.55" type="adult">
    <walk from="464445691#0" to="-464445691#0" />
  </person>
  <person id="ped_33" depart="160.37" type="adult">
    <walk from="464445691#0" to="-464445691#0" />
  </person>
  <person id="ped_34" depart="160.88" type="adult">
    <walk from="464445691#0" to="-464445691#0" />
  </person>
  <person id="ped_35" depart="165.16" type="adult">
    <walk from="464445691#0" to="-464445691#0" />
  </person>
  <person id="ped_36" depart="167.75" type="adult">
    <walk from="464445691#0" to="-464445691#0" />
  </person>
  <person id="ped_37" depart="168.95" type="adult">
    <walk from="464445691#0" to="-464445691#0" />
  </person>
  <person id="ped_38" depart="170.46" type="adult">
    <walk from="464445691#0" to="-464445691#0" />
  </person>
  <person id="ped_39" depart="175.89" type="adult">
    <walk from="464445691#0" to="-464445691#0" />
  </person>
  <person id="ped_40" depart="176.58" type="adult">
    <walk from="464445691#0" to="-464445691#0" />
  </person>
  <person id="ped_41" depart="184.58" type="adult">
    <walk from="464445691#0" to="-464445691#0" />
  </person>
  <person id="ped_42" depart="189.74" type="adult">
    <walk from="464445691#0" to="-464445691#0" />
  </person>
  <person id="ped_43" depart="190.59" type="adult">
    <walk from="464445691#0" to="-464445691#0" />
  </person>
  <person id="ped_44" depart="202.24" type="elderly">
    <walk from="464445691#0" to="-464445691#0" />
  </person>
  <person id="ped_45" depart="204.18" type="adult">
    <walk from="464445691#0" to="-464445691#0" />
  </person>
  <person id="ped_46" depart="210.89" type="adult">
    <walk from="464445691#0" to="-464445691#0" />
  </person>
  <person id="ped_47" depart="212.37" type="adult">
    <walk from="464445691#0" to="-464445691#0" />
  </person>
  <person id="ped_48" depart="215.31" type="adult">
    <walk from="464445691#0" to="-464445691#0" />
  </person>
  <person id="ped_49" depart="220.48" type="elderly">
    <walk from="464445691#0" to="-464445691#0" />
  </person>
  <person id="ped_50" depart="230.40" type="adult">
    <walk from="464445691#0" to="-464445691#0" />
  </person>
  <person id="ped_51" depart="231.22" type="adult">
    <walk from="464445691#0" to="-464445691#0" />
  </person>
  <person id="ped_52" depart="231.73" type="elderly">
    <walk from="464445691#0" to="-464445691#0" />
  </person>
  <person id="ped_53" depart="233.28" type="adult">
    <walk from="464445691#0" to="-464445691#0" />
  </person>
  <person id="ped_54" depart="238.08" type="adult">
    <walk from="464445691#0" to="-464445691#0" />
  </person>
  <person id="ped_55" depart="240.60" type="adult">
    <walk from="464445691#0" to="-464445691#0" />
  </person>
  <person id="ped_56" depart="241.39" type="adult">
    <walk from="464445691#0" to="-464445691#0" />
  </person>
  <person id="ped_57" depart="244.55" type="elderly">
    <walk from="464445691#0" to="-464445691#0" />
  </person>
  <person id="ped_58" depart="257.02" type="adult">
    <walk from="464445691#0" to="-464445691#0" />
  </person>
  <person id="ped_59" depart="257.37" type="adult">
    <walk from="464445691#0" to="-464445691#0" />
  </person>
  <person id="ped_60" depart="264.20" type="elderly">
    <walk from="464445691#0" to="-464445691#0" />
  </person>
  <person id="ped_61" depart="267.77" type="adult">
    <walk from="464445691#0" to="-464445691#0" />
  </person>
  <person id="ped_62" depart="269.14" type="adult">
    <walk from="464445691#0" to="-464445691#0" />
  </person>
  <person id="ped_63" depart="269.83" type="elderly">
    <walk from="464445691#0" to="-464445691#0" />
  </person>
  <person id="ped_64" depart="270.06" type="adult">
    <walk from="464445691#0" to="-464445691#0" />
  </person>
  <person id="ped_65" depart="270.18" type="adult">
    <walk from="464445691#0" to="-464445691#0" />
  </person>
  <person id="ped_66" depart="280.61" type="adult">
    <walk from="464445691#0" to="-464445691#0" />
  </person>
  <person id="ped_67" depart="289.65" type="adult">
    <walk from="464445691#0" to="-464445691#0" />
  </person>
  <person id="ped_68" depart="297.74" type="adult">
    <walk from="464445691#0" to="-464445691#0" />
  </person>
  <person id="ped_69" depart="297.80" type="adult">
    <walk from="464445691#0" to="-464445691#0" />
  </person>
  <person id="ped_70" depart="301.82" type="adult">
    <walk from="464445691#0" to="-464445691#0" />
  </person>
  <person id="ped_71" depart="319.86" type="adult">
    <walk from="464445691#0" to="-464445691#0" />
  </person>
  <person id="ped_72" depart="321.88" type="adult">
    <walk from="464445691#0" to="-464445691#0" />
  </person>
  <person id="ped_73" depart="324.22" type="adult">
    <walk from="464445691#0" to="-464445691#0" />
  </person>
  <person id="ped_74" depart="329.33" type="elderly">
    <walk from="464445691#0" to="-464445691#0" />
  </person>
  <person id="ped_75" depart="333.08" type="adult">
    <walk from="464445691#0" to="-464445691#0" />
  </person>
  <person id="ped_76" depart="342.01" type="adult">
    <walk from="464445691#0" to="-464445691#0" />
  </person>
  <person id="ped_77" depart="353.12" type="adult">
    <walk from="464445691#0" to="-464445691#0" />
  </person>
  <person id="ped_78" depart="353.53" type="elderly">
    <walk from="464445691#0" to="-464445691#0" />
  </person>
  <person id="ped_79" depart="354.17" type="adult">
    <walk from="464445691#0" to="-464445691#0" />
  </person>
  <person id="ped_80" depart="356.74" type="adult">
    <walk from="464445691#0" to="-464445691#0" />
  </person>
  <person id="ped_81" depart="362.65" type="adult">
    <walk from="464445691#0" to="-464445691#0" />
  </person>
  <person id="ped_82" depart="363.72" type="adult">
    <walk from="464445691#0" to="-464445691#0" />
  </person>
  <person id="ped_83" depart="363.74" type="adult">
    <walk from="464445691#0" to="-464445691#0" />
  </person>
  <person id="ped_84" depart="363.95" type="adult">
    <walk from="464445691#0" to="-464445691#0" />
  </person>
  <person id="ped_85" depart="365.59" type="elderly">
    <walk from="464445691#0" to="-464445691#0" />
  </person>
  <person id="ped_86" depart="368.05" type="adult">
    <walk from="464445691#0" to="-464445691#0" />
  </person>
  <person id="ped_87" depart="371.59" type="adult">
    <walk from="464445691#0" to="-464445691#0" />
  </person>
  <person id="ped_88" depart="372.68" type="adult">
    <walk from="464445691#0" to="-464445691#0" />
  </person>
  <person id="ped_89" depart="380.21" type="adult">
    <walk from="464445691#0" to="-464445691#0" />
  </person>
  <person id="ped_90" depart="380.55" type="adult">
    <walk from="464445691#0" to="-464445691#0" />
  </person>
  <person id="ped_91" depart="383.45" type="adult">
    <walk from="464445691#0" to="-464445691#0" />
  </person>
  <person id="ped_92" depart="387.17" type="elderly">
    <walk from="464445691#0" to="-464445691#0" />
  </person>
  <person id="ped_93" depart="388.10" type="elderly">
    <walk from="464445691#0" to="-464445691#0" />
  </person>
  <person id="ped_94" depart="390.31" type="adult">
    <walk from="464445691#0" to="-464445691#0" />
  </person>
  <person id="ped_95" depart="392.47" type="adult">
    <walk from="464445691#0" to="-464445691#0" />
  </person>
  <person id="ped_96" depart="395.67" type="adult">
    <walk from="464445691#0" to="-464445691#0" />
  </person>
  <person id="ped_97" depart="396.34" type="adult">
    <walk from="464445691#0" to="-464445691#0" />
  </person>
  <person id="ped_98" depart="400.12" type="adult">
    <walk from="464445691#0" to="-464445691#0" />
  </person>
  <person id="ped_99" depart="400.18" type="adult">
    <walk from="464445691#0" to="-464445691#0" />
  </person>
  <person id="ped_100" depart="401.81" type="adult">
    <walk from="464445691#0" to="-464445691#0" />
  </person>
  <person id="ped_101" depart="416.53" type="adult">
    <walk from="464445691#0" to="-464445691#0" />
  </person>
  <person id="ped_102" depart="421.27" type="adult">
    <walk from="464445691#0" to="-464445691#0" />
  </person>
  <person id="ped_103" depart="421.67" type="elderly">
    <walk from="464445691#0" to="-464445691#0" />
  </person>
  <person id="ped_104" depart="432.39" type="elderly">
    <walk from="464445691#0" to="-464445691#0" />
  </person>
  <person id="ped_105" depart="434.04" type="elderly">
    <walk from="464445691#0" to="-464445691#0" />
  </person>
  <person id="ped_106" depart="443.53" type="adult">
    <walk from="464445691#0" to="-464445691#0" />
  </person>
  <person id="ped_107" depart="447.31" type="adult">
    <walk from="464445691#0" to="-464445691#0" />
  </person>
  <person id="ped_108" depart="450.46" type="adult">
    <walk from="464445691#0" to="-464445691#0" />
  </person>
  <person id="ped_109" depart="453.50" type="adult">
    <walk from="464445691#0" to="-464445691#0" />
  </person>
  <person id="ped_110" depart="458.34" type="elderly">
    <walk from="464445691#0" to="-464445691#0" />
  </person>
  <person id="ped_111" depart="460.98" type="adult">
    <walk from="464445691#0" to="-464445691#0" />
  </person>
  <person id="ped_112" depart="461.08" type="adult">
    <walk from="464445691#0" to="-464445691#0" />
  </person>
  <person id="ped_113" depart="462.17" type="adult">
    <walk from="464445691#0" to="-464445691#0" />
  </person>
  <person id="ped_114" depart="463.58" type="adult">
    <walk from="464445691#0" to="-464445691#0" />
  </person>
  <person id="ped_115" depart="467.21" type="adult">
    <walk from="464445691#0" to="-464445691#0" />
  </person>
  <person id="ped_116" depart="467.82" type="adult">
    <walk from="464445691#0" to="-464445691#0" />
  </person>
  <person id="ped_117" depart="470.97" type="adult">
    <walk from="464445691#0" to="-464445691#0" />
  </person>
  <person id="ped_118" depart="473.21" type="elderly">
    <walk from="464445691#0" to="-464445691#0" />
  </person>
  <person id="ped_119" depart="476.06" type="adult">
    <walk from="464445691#0" to="-464445691#0" />
  </person>
  <person id="ped_120" depart="478.50" type="adult">
    <walk from="464445691#0" to="-464445691#0" />
  </person>
  <person id="ped_121" depart="480.86" type="adult">
    <walk from="464445691#0" to="-464445691#0" />
  </person>
  <person id="ped_122" depart="488.02" type="adult">
    <walk from="464445691#0" to="-464445691#0" />
  </person>
  <person id="ped_123" depart="490.09" type="adult">
    <walk from="464445691#0" to="-464445691#0" />
  </person>
  <person id="ped_124" depart="493.00" type="adult">
    <walk from="464445691#0" to="-464445691#0" />
  </person>
  <person id="ped_125" depart="493.08" type="elderly">
    <walk from="464445691#0" to="-464445691#0" />
  </person>
  <person id="ped_126" depart="493.59" type="elderly">
    <walk from="464445691#0" to="-464445691#0" />
  </person>
  <person id="ped_127" depart="495.05" type="elderly">
    <walk from="464445691#0" to="-464445691#0" />
  </person>
  <person id="ped_128" depart="496.35" type="adult">
    <walk from="464445691#0" to="-464445691#0" />
  </person>
  <person id="ped_129" depart="506.88" type="elderly">
    <walk from="464445691#0" to="-464445691#0" />
  </person>
  <person id="ped_130" depart="514.34" type="adult">
    <walk from="464445691#0" to="-464445691#0" />
  </person>
  <person id="ped_131" depart="516.67" type="adult">
    <walk from="464445691#0" to="-464445691#0" />
  </person>
  <person id="ped_132" depart="516.79" type="adult">
    <walk from="464445691#0" to="-464445691#0" />
  </person>
  <person id="ped_133" depart="521.31" type="adult">
    <walk from="464445691#0" to="-464445691#0" />
  </person>
  <person id="ped_134" depart="523.97" type="elderly">
    <walk from="464445691#0" to="-464445691#0" />
  </person>
  <person id="ped_135" depart="525.95" type="adult">
    <walk from="464445691#0" to="-464445691#0" />
  </person>
  <person id="ped_136" depart="528.98" type="adult">
    <walk from="464445691#0" to="-464445691#0" />
  </person>
  <person id="ped_137" depart="529.92" type="elderly">
    <walk from="464445691#0" to="-464445691#0" />
  </person>
  <person id="ped_138" depart="534.13" type="elderly">
    <walk from="464445691#0" to="-464445691#0" />
  </person>
  <person id="ped_139" depart="538.95" type="adult">
    <walk from="464445691#0" to="-464445691#0" />
  </person>
  <person id="ped_140" depart="541.99" type="adult">
    <walk from="464445691#0" to="-464445691#0" />
  </person>
  <person id="ped_141" depart="547.65" type="adult">
    <walk from="464445691#0" to="-464445691#0" />
  </person>
  <person id="ped_142" depart="548.36" type="adult">
    <walk from="464445691#0" to="-464445691#0" />
  </person>
  <person id="ped_143" depart="553.09" type="adult">
    <walk from="464445691#0" to="-464445691#0" />
  </person>
  <person id="ped_144" depart="553.85" type="adult">
    <walk from="464445691#0" to="-464445691#0" />
  </person>
  <person id="ped_145" depart="554.02" type="adult">
    <walk from="464445691#0" to="-464445691#0" />
  </person>
  <person id="ped_146" depart="555.88" type="adult">
    <walk from="464445691#0" to="-464445691#0" />
  </person>
  <person id="ped_147" depart="558.12" type="adult">
    <walk from="464445691#0" to="-464445691#0" />
  </person>
  <person id="ped_148" depart="558.66" type="adult">
    <walk from="464445691#0" to="-464445691#0" />
  </person>
  <person id="ped_149" depart="559.16" type="adult">
    <walk from="464445691#0" to="-464445691#0" />
  </person>
  <person id="ped_150" depart="564.38" type="adult">
    <walk from="464445691#0" to="-464445691#0" />
  </person>
  <person id="ped_151" depart="565.12" type="adult">
    <walk from="464445691#0" to="-464445691#0" />
  </person>
  <person id="ped_152" depart="567.95" type="adult">
    <walk from="464445691#0" to="-464445691#0" />
  </person>
  <person id="ped_153" depart="589.56" type="adult">
    <walk from="464445691#0" to="-464445691#0" />
  </person>
  <person id="ped_154" depart="594.73" type="adult">
    <walk from="464445691#0" to="-464445691#0" />
  </person>
  <person id="ped_155" depart="595.64" type="adult">
    <walk from="464445691#0" to="-464445691#0" />
  </person>
  <person id="ped_156" depart="599.54" type="adult">
    <walk from="464445691#0" to="-464445691#0" />
  </person>
  <person id="ped_157" depart="609.52" type="elderly">
    <walk from="464445691#0" to="-464445691#0" />
  </person>
  <person id="ped_158" depart="616.69" type="elderly">
    <walk from="464445691#0" to="-464445691#0" />
  </person>
  <person id="ped_159" depart="619.59" type="adult">
    <walk from="464445691#0" to="-464445691#0" />
  </person>
  <person id="ped_160" depart="623.76" type="adult">
    <walk from="464445691#0" to="-464445691#0" />
  </person>
  <person id="ped_161" depart="629.28" type="elderly">
    <walk from="464445691#0" to="-464445691#0" />
  </person>
  <person id="ped_162" depart="631.75" type="elderly">
    <walk from="464445691#0" to="-464445691#0" />
  </person>
  <person id="ped_163" depart="632.45" type="elderly">
    <walk from="464445691#0" to="-464445691#0" />
  </person>
  <person id="ped_164" depart="639.20" type="adult">
    <walk from="464445691#0" to="-464445691#0" />
  </person>
  <person id="ped_165" depart="654.88" type="elderly">
    <walk from="464445691#0" to="-464445691#0" />
  </person>
  <person id="ped_166" depart="660.17" type="adult">
    <walk from="464445691#0" to="-464445691#0" />
  </person>
  <person id="ped_167" depart="661.27" type="adult">
    <walk from="464445691#0" to="-464445691#0" />
  </person>
  <person id="ped_168" depart="661.29" type="adult">
    <walk from="464445691#0" to="-464445691#0" />
  </person>
  <person id="ped_169" depart="668.56" type="adult">
    <walk from="464445691#0" to="-464445691#0" />
  </person>
  <person id="ped_170" depart="672.31" type="adult">
    <walk from="464445691#0" to="-464445691#0" />
  </person>
  <person id="ped_171" depart="677.38" type="adult">
    <walk from="464445691#0" to="-464445691#0" />
  </person>
  <person id="ped_172" depart="697.52" type="adult">
    <walk from="464445691#0" to="-464445691#0" />
  </person>
  <person id="ped_173" depart="700.27" type="elderly">
    <walk from="464445691#0" to="-464445691#0" />
  </person>
  <person id="ped_174" depart="706.31" type="adult">
    <walk from="464445691#0" to="-464445691#0" />
  </person>
  <person id="ped_175" depart="707.03" type="elderly">
    <walk from="464445691#0" to="-464445691#0" />
  </person>
  <person id="ped_176" depart="710.32" type="elderly">
    <walk from="464445691#0" to="-464445691#0" />
  </person>
  <person id="ped_177" depart="711.12" type="adult">
    <walk from="464445691#0" to="-464445691#0" />
  </person>
  <person id="ped_178" depart="713.55" type="adult">
    <walk from="464445691#0" to="-464445691#0" />
  </person>
  <person id="ped_179" depart="713.65" type="elderly">
    <walk from="464445691#0" to="-464445691#0" />
  </person>
  <person id="ped_180" depart="718.93" type="adult">
    <walk from="464445691#0" to="-464445691#0" />
  </person>
  <person id="ped_181" depart="719.77" type="adult">
    <walk from="464445691#0" to="-464445691#0" />
  </person>
  <person id="ped_182" depart="721.56" type="adult">
    <walk from="464445691#0" to="-464445691#0" />
  </person>
  <person id="ped_183" depart="723.16" type="adult">
    <walk from="464445691#0" to="-464445691#0" />
  </person>
  <person id="ped_184" depart="723.50" type="adult">
    <walk from="464445691#0" to="-464445691#0" />
  </person>
  <person id="ped_185" depart="726.41" type="adult">
    <walk from="464445691#0" to="-464445691#0" />
  </person>
  <person id="ped_186" depart="730.57" type="adult">
    <walk from="464445691#0" to="-464445691#0" />
  </person>
  <person id="ped_187" depart="734.47" type="adult">
    <walk from="464445691#0" to="-464445691#0" />
  </person>
  <person id="ped_188" depart="734.69" type="adult">
    <walk from="464445691#0" to="-464445691#0" />
  </person>
  <person id="ped_189" depart="738.16" type="adult">
    <walk from="464445691#0" to="-464445691#0" />
  </person>
  <person id="ped_190" depart="740.38" type="adult">
    <walk from="464445691#0" to="-464445691#0" />
  </person>
  <person id="ped_191" depart="742.66" type="adult">
    <walk from="464445691#0" to="-464445691#0" />
  </person>
  <person id="ped_192" depart="743.49" type="adult">
    <walk from="464445691#0" to="-464445691#0" />
  </person>
  <person id="ped_193" depart="753.27" type="adult">
    <walk from="464445691#0" to="-464445691#0" />
  </person>
  <person id="ped_194" depart="754.32" type="adult">
    <walk from="464445691#0" to="-464445691#0" />
  </person>
  <person id="ped_195" depart="754.44" type="adult">
    <walk from="464445691#0" to="-464445691#0" />
  </person>
  <person id="ped_196" depart="757.15" type="adult">
    <walk from="464445691#0" to="-464445691#0" />
  </person>
  <person id="ped_197" depart="763.67" type="elderly">
    <walk from="464445691#0" to="-464445691#0" />
  </person>
  <person id="ped_198" depart="763.82" type="adult">
    <walk from="464445691#0" to="-464445691#0" />
  </person>
  <person id="ped_199" depart="773.49" type="adult">
    <walk from="464445691#0" to="-464445691#0" />
  </person>
  <person id="ped_200" depart="773.85" type="adult">
    <walk from="464445691#0" to="-464445691#0" />
  </person>
  <person id="ped_201" depart="778.22" type="adult">
    <walk from="464445691#0" to="-464445691#0" />
  </person>
  <person id="ped_202" depart="778.39" type="elderly">
    <walk from="464445691#0" to="-464445691#0" />
  </person>
  <person id="ped_203" depart="784.30" type="adult">
    <walk from="464445691#0" to="-464445691#0" />
  </person>
  <person id="ped_204" depart="794.35" type="adult">
    <walk from="464445691#0" to="-464445691#0" />
  </person>
  <person id="ped_205" depart="796.01" type="adult">
    <walk from="464445691#0" to="-464445691#0" />
  </person>
  <person id="ped_206" depart="796.98" type="adult">
    <walk from="464445691#0" to="-464445691#0" />
  </person>
  <person id="ped_207" depart="798.47" type="adult">
    <walk from="464445691#0" to="-464445691#0" />
  </person>
  <person id="ped_208" depart="798.63" type="adult">
    <walk from="464445691#0" to="-464445691#0" />
  </person>
  <person id="ped_209" depart="798.89" type="adult">
    <walk from="464445691#0" to="-464445691#0" />
  </person>
  <person id="ped_210" depart="800.42" type="adult">
    <walk from="464445691#0" to="-464445691#0" />
  </person>
  <person id="ped_211" depart="800.57" type="adult">
    <walk from="464445691#0" to="-464445691#0" />
  </person>
  <person id="ped_212" depart="801.32" type="elderly">
    <walk from="464445691#0" to="-464445691#0" />
  </person>
  <person id="ped_213" depart="802.15" type="elderly">
    <walk from="464445691#0" to="-464445691#0" />
  </person>
  <person id="ped_214" depart="807.17" type="adult">
    <walk from="464445691#0" to="-464445691#0" />
  </person>
  <person id="ped_215" depart="824.55" type="adult">
    <walk from="464445691#0" to="-464445691#0" />
  </person>
  <person id="ped_216" depart="826.13" type="adult">
    <walk from="464445691#0" to="-464445691#0" />
  </person>
  <person id="ped_217" depart="827.73" type="adult">
    <walk from="464445691#0" to="-464445691#0" />
  </person>
  <person id="ped_218" depart="827.84" type="elderly">
    <walk from="464445691#0" to="-464445691#0" />
  </person>
  <person id="ped_219" depart="831.34" type="elderly">
    <walk from="464445691#0" to="-464445691#0" />
  </person>
  <person id="ped_220" depart="832.30" type="adult">
    <walk from="464445691#0" to="-464445691#0" />
  </person>
  <person id="ped_221" depart="835.00" type="elderly">
    <walk from="464445691#0" to="-464445691#0" />
  </person>
  <person id="ped_222" depart="840.37" type="elderly">
    <walk from="464445691#0" to="-464445691#0" />
  </person>
  <person id="ped_223" depart="845.45" type="adult">
    <walk from="464445691#0" to="-464445691#0" />
  </person>
  <person id="ped_224" depart="849.30" type="adult">
    <walk from="464445691#0" to="-464445691#0" />
  </person>
  <person id="ped_225" depart="853.94" type="adult">
    <walk from="464445691#0" to="-464445691#0" />
  </person>
  <person id="ped_226" depart="857.41" type="adult">
    <walk from="464445691#0" to="-464445691#0" />
  </person>
  <person id="ped_227" depart="858.81" type="adult">
    <walk from="464445691#0" to="-464445691#0" />
  </person>
  <person id="ped_228" depart="858.91" type="adult">
    <walk from="464445691#0" to="-464445691#0" />
  </person>
  <person id="ped_229" depart="859.46" type="adult">
    <walk from="464445691#0" to="-464445691#0" />
  </person>
  <person id="ped_230" depart="862.29" type="adult">
    <walk from="464445691#0" to="-464445691#0" />
  </person>
  <person id="ped_231" depart="865.53" type="adult">
    <walk from="464445691#0" to="-464445691#0" />
  </person>
  <person id="ped_232" depart="866.66" type="adult">
    <walk from="464445691#0" to="-464445691#0" />
  </person>
  <person id="ped_233" depart="868.71" type="adult">
    <walk from="464445691#0" to="-464445691#0" />
  </person>
  <person id="ped_234" depart="871.64" type="adult">
    <walk from="464445691#0" to="-464445691#0" />
  </person>
  <person id="ped_235" depart="872.58" type="adult">
    <walk from="464445691#0" to="-464445691#0" />
  </person>
  <person id="ped_236" depart="879.92" type="elderly">
    <walk from="464445691#0" to="-464445691#0" />
  </person>
  <person id="ped_237" depart="880.41" type="adult">
    <walk from="464445691#0" to="-464445691#0" />
  </person>
  <person id="ped_238" depart="883.18" type="adult">
    <walk from="464445691#0" to="-464445691#0" />
  </person>
  <person id="ped_239" depart="886.77" type="adult">
    <walk from="464445691#0" to="-464445691#0" />
  </person>
  <person id="ped_240" depart="893.50" type="elderly">
    <walk from="464445691#0" to="-464445691#0" />
  </person>
  <person id="ped_241" depart="894.51" type="adult">
    <walk from="464445691#0" to="-464445691#0" />
  </person>
  <person id="ped_242" depart="904.15" type="adult">
    <walk from="464445691#0" to="-464445691#0" />
  </person>
  <person id="ped_243" depart="910.65" type="adult">
    <walk from="464445691#0" to="-464445691#0" />
  </person>
  <person id="ped_244" depart="910.76" type="adult">
    <walk from="464445691#0" to="-464445691#0" />
  </person>
  <person id="ped_245" depart="913.63" type="adult">
    <walk from="464445691#0" to="-464445691#0" />
  </person>
  <person id="ped_246" depart="919.34" type="adult">
    <walk from="464445691#0" to="-464445691#0" />
  </person>
  <person id="ped_247" depart="920.27" type="elderly">
    <walk from="464445691#0" to="-464445691#0" />
  </person>
  <person id="ped_248" depart="926.97" type="adult">
    <walk from="464445691#0" to="-464445691#0" />
  </person>
  <person id="ped_249" depart="932.48" type="adult">
    <walk from="464445691#0" to="-464445691#0" />
  </person>
  <person id="ped_250" depart="936.97" type="adult">
    <walk from="464445691#0" to="-464445691#0" />
  </person>
  <person id="ped_251" depart="938.00" type="adult">
    <walk from="464445691#0" to="-464445691#0" />
  </person>
  <person id="ped_252" depart="938.41" type="adult">
    <walk from="464445691#0" to="-464445691#0" />
  </person>
  <person id="ped_253" depart="938.50" type="elderly">
    <walk from="464445691#0" to="-464445691#0" />
  </person>
  <person id="ped_254" depart="941.49" type="adult">
    <walk from="464445691#0" to="-464445691#0" />
  </person>
  <person id="ped_255" depart="954.38" type="adult">
    <walk from="464445691#0" to="-464445691#0" />
  </person>
  <person id="ped_256" depart="955.27" type="elderly">
    <walk from="464445691#0" to="-464445691#0" />
  </person>
  <person id="ped_257" depart="955.39" type="elderly">
    <walk from="464445691#0" to="-464445691#0" />
  </person>
  <person id="ped_258" depart="957.00" type="adult">