<?xml version='1.0' encoding='utf-8'?>
<routes>
  <vType id="adult" vClass="pedestrian" minGap="0.25" width="0.5" length="0.25" maxSpeed="1.5" speedDev="0.1" />
  <vType id="elderly" vClass="pedestrian" minGap="0.25" width="0.5" length="0.25" maxSpeed="1.13" speedDev="0.15" color="255,0,0" />
  <person id="ped_0" depart="4.41" type="adult">
    <walk from="464445691#0" to="-464445691#0" />
  </person>
  <person id="ped_1" depart="14.23" type="adult">
    <walk from="464445691#0" to="-464445691#0" />
  </person>
  <person id="ped_2" depart="14.72" type="adult">
    <walk from="464445691#0" to="-464445691#0" />
  </person>
  <person id="ped_3" depart="15.82" type="adult">
    <walk from="464445691#0" to="-464445691#0" />
  </person>
  <person id="ped_4" depart="18.42" type="elderly">
    <walk from="464445691#0" to="-464445691#0" />
  </person>
  <person id="ped_5" depart="19.50" type="adult">
    <walk from="464445691#0" to="-464445691#0" />
  </person>
  <person id="ped_6" depart="27.97" type="elderly">
    <walk from="464445691#0" to="-464445691#0" />
  </person>
  <person id="ped_7" depart="30.79" type="adult">
    <walk from="464445691#0" to="-464445691#0" />
  </person>
  <person id="ped_8" depart="38.52" type="adult">
    <walk from="464445691#0" to="-464445691#0" />
  </person>
  <person id="ped_9" depart="44.99" type="adult">
    <walk from="464445691#0" to="-464445691#0" />
  </person>
  <person id="ped_10" depart="45.95" type="elderly">
    <walk from="464445691#0" to="-464445691#0" />
  </person>
  <person id="ped_11" depart="46.16" type="adult">
    <walk from="464445691#0" to="-464445691#0" />
  </person>
  <person id="ped_12" depart="46.24" type="adult">
    <walk from="464445691#0" to="-464445691#0" />
  </person>
  <person id="ped_13" depart="49.29" type="adult">
    <walk from="464445691#0" to="-464445691#0" />
  </person>
  <person id="ped_14" depart="59.00" type="adult">
    <walk from="464445691#0" to="-464445691#0" />
  </person>
  <person id="ped_15" depart="59.67" type="adult">
    <walk from="464445691#0" to="-464445691#0" />
  </person>
  <person id="ped_16" depart="64.88" type="adult">
    <walk from="464445691#0" to="-464445691#0" />
  </person>
  <person id="ped_17" depart="73.26" type="adult">
    <walk from="464445691#0" to="-464445691#0" />
  </person>
  <person id="ped_18" depart="76.57" type="adult">
    <walk from="464445691#0" to="-464445691#0" />
  </person>
  <person id="ped_19" depart="78.01" type="adult">
    <walk from="464445691#0" to="-464445691#0" />
  </person>
  <person id="ped_20" depart="79.42" type="adult">
    <walk from="464445691#0" to="-464445691#0" />
  </person>
  <person id="ped_21" depart="82.08" type="adult">
    <walk from="464445691#0" to="-464445691#0" />
  </person>
  <person id="ped_22" depart="83.33" type="adult">
    <walk from="464445691#0" to="-464445691#0" />
  </person>
  <person id="ped_23" depart="87.92" type="adult">
    <walk from="464445691#0" to="-464445691#0" />
  </person>
  <person id="ped_24" depart="89.17" type="adult">
    <walk from="464445691#0" to="-464445691#0" />
  </person>
  <person id="ped_25" depart="93.38" type="adult">
    <walk from="464445691#0" to="-464445691#0" />
  </person>
  <person id="ped_26" depart="94.64" type="elderly">
    <walk from="464445691#0" to="-464445691#0" />
  </person>
  <person id="ped_27" depart="105.26" type="elderly">
    <walk from="464445691#0" to="-464445691#0" />
  </person>
  <person id="ped_28" depart="112.05" type="adult">
    <walk from="464445691#0" to="-464445691#0" />
  </person>
  <person id="ped_29" depart="120.32" type="adult">
    <walk from="464445691#0" to="-464445691#0" />
  </person>
  <person id="ped_30" depart="120.80" type="adult">
    <walk from="464445691#0" to="-464445691#0" />
  </person>
  <person id="ped_31" depart="120.82" type="adult">
    <walk from="464445691#0" to="-464445691#0" />
  </person>
  <person id="ped_32" depart="132.53" type="adult">
    <walk from="464445691#0" to="-464445691#0" />
  </person>
  <person id="ped_33" depart="132.63" type="adult">
    <walk from="464445691#0" to="-464445691#0" />
  </person>
  <person id="ped_34" depart="133.05" type="adult">
    <walk from="464445691#0" to="-464445691#0" />
  </person>
  <person id="ped_35" depart="138.52" type="adult">
    <walk from="464445691#0" to="-464445691#0" />
  </person>
  <person id="ped_36" depart="138.61" type="adult">
    <walk from="464445691#0" to="-464445691#0" />
  </person>
  <person id="ped_37" depart="146.83" type="adult">
    <walk from="464445691#0" to="-464445691#0" />
  </person>
  <person id="ped_38" depart="150.69" type="adult">
    <walk from="464445691#0" to="-464445691#0" />
  </person>
  <person id="ped_39" depart="151.33" type="adult">
    <walk from="464445691#0" to="-464445691#0" />
  </person>
  <person id="ped_40" depart="152.56" type="elderly">
    <walk from="464445691#0" to="-464445691#0" />
  </person>
  <person id="ped_41" depart="155.85" type="elderly">
    <walk from="464445691#0" to="-464445691#0" />
  </person>
  <person id="ped_42" depart="156.28" type="adult">
    <walk from="464445691#0" to="-464445691#0" />
  </person>
  <person id="ped_43" depart="164.38" type="adult">
    <walk from="464445691#0" to="-464445691#0" />
  </person>
  <person id="ped_44" depart="169.43" type="adult">
    <walk from="464445691#0" to="-464445691#0" />
  </person>
  <person id="ped_45" depart="173.37" type="adult">
    <walk from="464445691#0" to="-464445691#0" />
  </person>
  <person id="ped_46" depart="174.47" type="adult">
    <walk from="464445691#0" to="-464445691#0" />
  </person>
  <person id="ped_47" depart="174.82" type="adult">
    <walk from="464445691#0" to="-464445691#0" />
  </person>
  <person id="ped_48" depart="175.48" type="adult">
    <walk from="464445691#0" to="-464445691#0" />
  </person>
  <person id="ped_49" depart="178.86" type="adult">
    <walk from="464445691#0" to="-464445691#0" />
  </person>
  <person id="ped_50" depart="184.80" type="adult">
    <walk from="464445691#0" to="-464445691#0" />
  </person>
  <person id="ped_51" depart="184.81" type="adult">
    <walk from="464445691#0" to="-464445691#0" />
  </person>
  <person id="ped_52" depart="191.33" type="adult">
    <walk from="464445691#0" to="-464445691#0" />
  </person>
  <person id="ped_53" depart="195.53" type="adult">
    <walk from="464445691#0" to="-464445691#0" />
  </person>
  <person id="ped_54" depart="203.27" type="adult">
    <walk from="464445691#0" to="-464445691#0" />
  </person>
  <person id="ped_55" depart="205.37" type="elderly">
    <walk from="464445691#0" to="-464445691#0" />
  </person>
  <person id="ped_56" depart="207.93" type="adult">
    <walk from="464445691#0" to="-464445691#0" />
  </person>
  <person id="ped_57" depart="209.30" type="adult">
    <walk from="464445691#0" to="-464445691#0" />
  </person>
  <person id="ped_58" depart="217.48" type="adult">
    <walk from="464445691#0" to="-464445691#0" />
  </person>
  <person id="ped_59" depart="220.49" type="adult">
    <walk from="464445691#0" to="-464445691#0" />
  </person>
  <person id="ped_60" depart="222.88" type="elderly">
    <walk from="464445691#0" to="-464445691#0" />
  </person>
  <person id="ped_61" depart="223.90" type="adult">
    <walk from="464445691#0" to="-464445691#0" />
  </person>
  <person id="ped_62" depart="228.23" type="adult">
    <walk from="464445691#0" to="-464445691#0" />
  </person>
  <person id="ped_63" depart="230.97" type="elderly">
    <walk from="464445691#0" to="-464445691#0" />
  </person>
  <person id="ped_64" depart="231.48" type="adult">
    <walk from="464445691#0" to="-464445691#0" />
  </person>
  <person id="ped_65" depart="235.12" type="adult">
    <walk from="464445691#0" to="-464445691#0" />
  </person>
  <person id="ped_66" depart="242.21" type="adult">
    <walk from="464445691#0" to="-464445691#0" />
  </person>
  <person id="ped_67" depart="245.63" type="adult">
    <walk from="464445691#0" to="-464445691#0" />
  </person>
  <person id="ped_68" depart="250.10" type="adult">
    <walk from="464445691#0" to="-464445691#0" />
  </person>
  <person id="ped_69" depart="251.40" type="adult">
    <walk from="464445691#0" to="-464445691#0" />
  </person>
  <person id="ped_70" depart="254.23" type="adult">
    <walk from="464445691#0" to="-464445691#0" />
  </person>
  <person id="ped_71" depart="255.65" type="adult">
    <walk from="464445691#0" to="-464445691#0" />
  </person>
  <person id="ped_72" depart="261.47" type="adult">
    <walk from="464445691#0" to="-464445691#0" />
  </person>
  <person id="ped_73" depart="262.68" type="adult">
    <walk from="464445691#0" to="-464445691#0" />
  </person>
  <person id="ped_74" depart="263.04" type="adult">
    <walk from="464445691#0" to="-464445691#0" />
  </person>
  <person id="ped_75" depart="265.20" type="adult">
    <walk from="464445691#0" to="-464445691#0" />
  </person>
  <person id="ped_76" depart="269.13" type="elderly">
    <walk from="464445691#0" to="-464445691#0" />
  </person>
  <person id="ped_77" depart="270.33" type="adult">
    <walk from="464445691#0" to="-464445691#0" />
  </person>
  <person id="ped_78" depart="275.24" type="adult">
    <walk from="464445691#0" to="-464445691#0" />
  </person>
  <person id="ped_79" depart="275.92" type="elderly">
    <walk from="464445691#0" to="-464445691#0" />
  </person>
  <person id="ped_80" depart="276.08" type="adult">
    <walk from="464445691#0" to="-464445691#0" />
  </person>
  <person id="ped_81" depart="276.70" type="adult">
    <walk from="464445691#0" to="-464445691#0" />
  </person>
  <person id="ped_82" depart="277.49" type="adult">
    <walk from="464445691#0" to="-464445691#0" />
  </person>
  <person id="ped_83" depart="281.98" type="adult">
    <walk from="464445691#0" to="-464445691#0" />
  </person>
  <person id="ped_84" depart="284.43" type="elderly">
    <walk from="464445691#0" to="-464445691#0" />
  </person>
  <person id="ped_85" depart="286.35" type="adult">
    <walk from="464445691#0" to="-464445691#0" />
  </person>
  <person id="ped_86" depart="299.19" type="adult">
    <walk from="464445691#0" to="-464445691#0" />
  </person>
  <person id="ped_87" depart="300.02" type="adult">
    <walk from="464445691#0" to="-464445691#0" />
  </person>
  <person id="ped_88" depart="303.52" type="adult">
    <walk from="464445691#0" to="-464445691#0" />
  </person>
  <person id="ped_89" depart="308.27" type="adult">
    <walk from="464445691#0" to="-464445691#0" />
  </person>
  <person id="ped_90" depart="318.16" type="elderly">
    <walk from="464445691#0" to="-464445691#0" />
  </person>
  <person id="ped_91" depart="323.76" type="adult">
    <walk from="464445691#0" to="-464445691#0" />
  </person>
  <person id="ped_92" depart="324.17" type="elderly">
    <walk from="464445691#0" to="-464445691#0" />
  </person>
  <person id="ped_93" depart="328.84" type="elderly">
    <walk from="464445691#0" to="-464445691#0" />
  </person>
  <person id="ped_94" depart="330.51" type="adult">
    <walk from="464445691#0" to="-464445691#0" />
  </person>
  <person id="ped_95" depart="330.97" type="adult">
    <walk from="464445691#0" to="-464445691#0" />
  </person>
  <person id="ped_96" depart="336.65" type="adult">
    <walk from="464445691#0" to="-464445691#0" />
  </person>
  <person id="ped_97" depart="337.20" type="adult">
    <walk from="464445691#0" to="-464445691#0" />
  </person>
  <person id="ped_98" depart="337.23" type="elderly">
    <walk from="464445691#0" to="-464445691#0" />
  </person>
  <person id="ped_99" depart="340.04" type="adult">
    <walk from="464445691#0" to="-464445691#0" />
  </person>
  <person id="ped_100" depart="342.51" type="elderly">
    <walk from="464445691#0" to="-464445691#0" />
  </person>
  <person id="ped_101" depart="343.10" type="adult">
    <walk from="464445691#0" to="-464445691#0" />
  </person>
  <person id="ped_102" depart="344.93" type="adult">
    <walk from="464445691#0" to="-464445691#0" />
  </person>
  <person id="ped_103" depart="353.03" type="adult">
    <walk from="464445691#0" to="-464445691#0" />
  </person>
  <person id="ped_104" depart="360.99" type="adult">
    <walk from="464445691#0" to="-464445691#0" />
  </person>
  <person id="ped_105" depart="362.09" type="adult">
    <walk from="464445691#0" to="-464445691#0" />
  </person>
  <person id="ped_106" depart="362.13" type="elderly">
    <walk from="464445691#0" to="-464445691#0" />
  </person>
  <person id="ped_107" depart="365.37" type="elderly">
    <walk from="464445691#0" to="-464445691#0" />
  </person>
  <person id="ped_108" depart="367.19" type="elderly">
    <walk from="464445691#0" to="-464445691#0" />
  </person>
  <person id="ped_109" depart="367.29" type="adult">
    <walk from="464445691#0" to="-464445691#0" />
  </person>
  <person id="ped_110" depart="367.48" type="adult">
    <walk from="464445691#0" to="-464445691#0" />
  </person>
  <person id="ped_111" depart="367.50" type="elderly">
    <walk from="464445691#0" to="-464445691#0" />
  </person>
  <person id="ped_112" depart="371.50" type="adult">
    <walk from="464445691#0" to="-464445691#0" />
  </person>
  <person id="ped_113" depart="373.12" type="elderly">
    <walk from="464445691#0" to="-464445691#0" />
  </person>
  <person id="ped_114" depart="375.31" type="elderly">
    <walk from="464445691#0" to="-464445691#0" />
  </person>
  <person id="ped_115" depart="386.35" type="elderly">
    <walk from="464445691#0" to="-464445691#0" />
  </person>
  <person id="ped_116" depart="391.56" type="elderly">
    <walk from="464445691#0" to="-464445691#0" />
  </person>
  <person id="ped_117" depart="398.86" type="adult">
    <walk from="464445691#0" to="-464445691#0" />
  </person>
  <person id="ped_118" depart="400.93" type="adult">
    <walk from="464445691#0" to="-464445691#0" />
  </person>
  <person id="ped_119" depart="402.08" type="adult">
    <walk from="464445691#0" to="-464445691#0" />
  </person>
  <person id="ped_120" depart="408.31" type="adult">
    <walk from="464445691#0" to="-464445691#0" />
  </person>
  <person id="ped_121" depart="408.47" type="adult">
    <walk from="464445691#0" to="-464445691#0" />
  </person>
  <person id="ped_122" depart="408.99" type="adult">
    <walk from="464445691#0" to="-464445691#0" />
  </person>
  <person id="ped_123" depart="412.27" type="elderly">
    <walk from="464445691#0" to="-464445691#0" />
  </person>
  <person id="ped_124" depart="421.56" type="adult">
    <walk from="464445691#0" to="-464445691#0" />
  </person>
  <person id="ped_125" depart="423.88" type="adult">
    <walk from="464445691#0" to="-464445691#0" />
  </person>
  <person id="ped_126" depart="429.14" type="elderly">
    <walk from="464445691#0" to="-464445691#0" />
  </person>
  <person id="ped_127" depart="431.31" type="adult">
    <walk from="464445691#0" to="-464445691#0" />
  </person>
  <person id="ped_128" depart="435.27" type="adult">
    <walk from="464445691#0" to="-464445691#0" />
  </person>
  <person id="ped_129" depart="442.97" type="elderly">
    <walk from="464445691#0" to="-464445691#0" />
  </person>
  <person id="ped_130" depart="449.27" type="adult">
    <walk from="464445691#0" to="-464445691#0" />
  </person>
  <person id="ped_131" depart="451.54" type="adult">
    <walk from="464445691#0" to="-464445691#0" />
  </person>
  <person id="ped_132" depart="455.74" type="adult">
    <walk from="464445691#0" to="-464445691#0" />
  </person>
  <person id="ped_133" depart="460.11" type="elderly">
    <walk from="464445691#0" to="-464445691#0" />
  </person>
  <person id="ped_134" depart="461.36" type="adult">
    <walk from="464445691#0" to="-464445691#0" />
  </person>
  <person id="ped_135" depart="463.48" type="adult">
    <walk from="464445691#0" to="-464445691#0" />
  </person>
  <person id="ped_136" depart="468.40" type="adult">
    <walk from="464445691#0" to="-464445691#0" />
  </person>
  <person id="ped_137" depart="478.16" type="adult">
    <walk from="464445691#0" to="-464445691#0" />
  </person>
  <person id="ped_138" depart="482.08" type="adult">
    <walk from="464445691#0" to="-464445691#0" />
  </person>
  <person id="ped_139" depart="483.98" type="adult">
    <walk from="464445691#0" to="-464445691#0" />
  </person>
  <person id="ped_140" depart="484.73" type="elderly">
    <walk from="464445691#0" to="-464445691#0" />
  </person>
  <person id="ped_141" depart="487.62" type="elderly">
    <walk from="464445691#0" to="-464445691#0" />
  </person>
  <person id="ped_142" depart="493.05" type="adult">
    <walk from="464445691#0" to="-464445691#0" />
  </person>
  <person id="ped_143" depart="519.54" type="adult">
    <walk from="464445691#0" to="-464445691#0" />
  </person>
  <person id="ped_144" depart="522.58" type="adult">
    <walk from="464445691#0" to="-464445691#0" />
  </person>
  <person id="ped_145" depart="525.55" type="elderly">
    <walk from="464445691#0" to="-464445691#0" />
  </person>
  <person id="ped_146" depart="526.90" type="adult">
    <walk from="464445691#0" to="-464445691#0" />
  </person>
  <person id="ped_147" depart="527.09" type="adult">
    <walk from="464445691#0" to="-464445691#0" />
  </person>
  <person id="ped_148" depart="530.06" type="elderly">
    <walk from="464445691#0" to="-464445691#0" />
  </person>
  <person id="ped_149" depart="533.15" type="elderly">
    <walk from="464445691#0" to="-464445691#0" />
  </person>
  <person id="ped_150" depart="533.91" type="elderly">
    <walk from="464445691#0" to="-464445691#0" />
  </person>
  <person id="ped_151" depart="535.25" type="adult">
    <walk from="464445691#0" to="-464445691#0" />
  </person>
  <person id="ped_152" depart="536.73" type="adult">
    <walk from="464445691#0" to="-464445691#0" />
  </person>
  <person id="ped_153" depart="541.27" type="adult">
    <walk from="464445691#0" to="-464445691#0" />
  </person>
  <person id="ped_154" depart="544.51" type="elderly">
    <walk from="464445691#0" to="-464445691#0" />
  </person>
  <person id="ped_155" depart="554.11" type="adult">
    <walk from="464445691#0" to="-464445691#0" />
  </person>
  <person id="ped_156" depart="555.84" type="adult">
    <walk from="464445691#0" to="-464445691#0" />
  </person>
  <person id="ped_157" depart="562.99" type="elderly">
    <walk from="464445691#0" to="-464445691#0" />
  </person>
  <person id="ped_158" depart="563.98" type="adult">
    <walk from="464445691#0" to="-464445691#0" />
  </person>
  <person id="ped_159" depart="564.17" type="adult">
    <walk from="464445691#0" to="-464445691#0" />
  </person>
  <person id="ped_160" depart="574.60" type="adult">
    <walk from="464445691#0" to="-464445691#0" />
  </person>
  <person id="ped_161" depart="576.72" type="adult">
    <walk from="464445691#0" to="-464445691#0" />
  </person>
  <person id="ped_162" depart="585.40" type="adult">
    <walk from="464445691#0" to="-464445691#0" />
  </person>
  <person id="ped_163" depart="587.23" type="elderly">
    <walk from="464445691#0" to="-464445691#0" />
  </person>
  <person id="ped_164" depart="590.43" type="adult">
    <walk from="464445691#0" to="-464445691#0" />
  </person>
  <person id="ped_165" depart="590.74" type="adult">
    <walk from="464445691#0" to="-464445691#0" />
  </person>
  <person id="ped_166" depart="596.76" type="adult">
    <walk from="464445691#0" to="-464445691#0" />
  </person>
  <person id="ped_167" depart="604.14" type="adult">
    <walk from="464445691#0" to="-464445691#0" />
  </person>
  <person id="ped_168" depart="605.04" type="adult">
    <walk from="464445691#0" to="-464445691#0" />
  </person>
  <person id="ped_169" depart="606.11" type="adult">
    <walk from="464445691#0" to="-464445691#0" />
  </person>
  <person id="ped_170" depart="608.41" type="adult">
    <walk from="464445691#0" to="-464445691#0" />
  </person>
  <person id="ped_171" depart="617.74" type="adult">
    <walk from="464445691#0" to="-464445691#0" />
  </person>
  <person id="ped_172" depart="618.54" type="adult">
    <walk from="464445691#0" to="-464445691#0" />
  </person>
  <person id="ped_173" depart="618.97" type="adult">
    <walk from="464445691#0" to="-464445691#0" />
  </person>
  <person id="ped_174" depart="619.96" type="adult">
    <walk from="464445691#0" to="-464445691#0" />
  </person>
  <person id="ped_175" depart="622.04" type="adult">
    <walk from="464445691#0" to="-464445691#0" />
  </person>
  <person id="ped_176" depart="627.53" type="elderly">
    <walk from="464445691#0" to="-464445691#0" />
  </person>
  <person id="ped_177" depart="629.00" type="adult">
    <walk from="464445691#0" to="-464445691#0" />
  </person>
  <person id="ped_178" depart="629.28" type="adult">
    <walk from="464445691#0" to="-464445691#0" />
  </person>
  <person id="ped_179" depart="650.92" type="adult">
    <walk from="464445691#0" to="-464445691#0" />
  </person>
  <person id="ped_180" depart="657.58" type="elderly">
    <walk from="464445691#0" to="-464445691#0" />
  </person>
  <person id="ped_181" depart="657.62" type="adult">
    <walk from="464445691#0" to="-464445691#0" />
  </person>
  <person id="ped_182" depart="658.73" type="adult">
    <walk from="464445691#0" to="-464445691#0" />
  </person>
  <person id="ped_183" depart="662.47" type="adult">
    <walk from="464445691#0" to="-464445691#0" />
  </person>
  <person id="ped_184" depart="663.17" type="adult">
    <walk from="464445691#0" to="-464445691#0" />
  </person>
  <person id="ped_185" depart="664.37" type="adult">
    <walk from="464445691#0" to="-464445691#0" />
  </person>
  <person id="ped_186" depart="665.28" type="adult">
    <walk from="464445691#0" to="-464445691#0" />
  </person>
  <person id="ped_187" depart="665.51" type="adult">
    <walk from="464445691#0" to="-464445691#0" />
  </person>
  <person id="ped_188" depart="669.29" type="adult">
    <walk from="464445691#0" to="-464445691#0" />
  </person>
  <person id="ped_189" depart="673.25" type="adult">
    <walk from="464445691#0" to="-464445691#0" />
  </person>
  <person id="ped_190" depart="687.25" type="adult">
    <walk from="464445691#0" to="-464445691#0" />
  </person>
  <person id="ped_191" depart="695.85" type="adult">
    <walk from="464445691#0" to="-464445691#0" />
  </person>
  <person id="ped_192" depart="696.15" type="adult">
    <walk from="464445691#0" to="-464445691#0" />
  </person>
  <person id="ped_193" depart="699.65" type="adult">
    <walk from="464445691#0" to="-464445691#0" />
  </person>
  <person id="ped_194" depart="703.76" type="adult">
    <walk from="464445691#0" to="-464445691#0" />
  </person>
  <person id="ped_195" depart="712.18" type="adult">
    <walk from="464445691#0" to="-464445691#0" />
  </person>
  <person id="ped_196" depart="722.35" type="adult">
    <walk from="464445691#0" to="-464445691#0" />
  </person>
  <person id="ped_197" depart="731.77" type="elderly">
    <walk from="464445691#0" to="-464445691#0" />
  </person>
  <person id="ped_198" depart="739.73" type="adult">
    <walk from="464445691#0" to="-464445691#0" />
  </person>
  <person id="ped_199" depart="740.84" type="adult">
    <walk from="464445691#0" to="-464445691#0" />
  </person>
  <person id="ped_200" depart="745.22" type="adult">
    <walk from="464445691#0" to="-464445691#0" />
  </person>
  <person id="ped_201" depart="749.40" type="adult">
    <walk from="464445691#0" to="-464445691#0" />
  </person>
  <person id="ped_202" depart="750.50" type="adult">
    <walk from="464445691#0" to="-464445691#0" />
  </person>
  <person id="ped_203" depart="753.73" type="adult">
    <walk from="464445691#0" to="-464445691#0" />
  </person>
  <person id="ped_204" depart="753.77" type="adult">
    <walk from="464445691#0" to="-464445691#0" />
  </person>
  <person id="ped_205" depart="754.37" type="adult">
    <walk from="464445691#0" to="-464445691#0" />
  </person>
  <person id="ped_206" depart="755.07" type="elderly">
    <walk from="464445691#0" to="-464445691#0" />
  </person>
  <person id="ped_207" depart="766.97" type="elderly">
    <walk from="464445691#0" to="-464445691#0" />
  </person>
  <person id="ped_208" depart="769.49" type="elderly">
    <walk from="464445691#0" to="-464445691#0" />
  </person>
  <person id="ped_209" depart="771.07" type="adult">
    <walk from="464445691#0" to="-464445691#0" />
  </person>
  <person id="ped_210" depart="771.21" type="adult">
    <walk from="464445691#0" to="-464445691#0" />
  </person>
  <person id="ped_211" depart="773.58" type="elderly">
    <walk from="464445691#0" to="-464445691#0" />
  </person>
  <person id="ped_212" depart="783.22" type="adult">
    <walk from="464445691#0" to="-464445691#0" />
  </person>
  <person id="ped_213" depart="785.89" type="elderly">
    <walk from="464445691#0" to="-464445691#0" />
  </person>
  <person id="ped_214" depart="794.88" type="adult">
    <walk from="464445691#0" to="-464445691#0" />
  </person>
  <person id="ped_215" depart="798.51" type="adult">
    <walk from="464445691#0" to="-464445691#0" />
  </person>
  <person id="ped_216" depart="803.40" type="adult">
    <walk from="464445691#0" to="-464445691#0" />
  </person>
  <person id="ped_217" depart="807.72" type="elderly">
    <walk from="464445691#0" to="-464445691#0" />
  </person>
  <person id="ped_218" depart="810.44" type="elderly">
    <walk from="464445691#0" to="-464445691#0" />
  </person>
  <person id="ped_219" depart="810.45" type="adult">
    <walk from="464445691#0" to="-464445691#0" />
  </person>
  <person id="ped_220" depart="812.62" type="adult">
    <walk from="464445691#0" to="-464445691#0" />
  </person>
  <person id="ped_221" depart="820.26" type="adult">
    <walk from="464445691#0" to="-464445691#0" />
  </person>
  <person id="ped_222" depart="831.69" type="adult">
    <walk from="464445691#0" to="-464445691#0" />
  </person>
  <person id="ped_223" depart="836.12" type="adult">
    <walk from="464445691#0" to="-464445691#0" />
  </person>
  <person id="ped_224" depart="836.64" type="adult">
    <walk from="464445691#0" to="-464445691#0" />
  </person>
  <person id="ped_225" depart="837.30" type="adult">
    <walk from="464445691#0" to="-464445691#0" />
  </person>
  <person id="ped_226" depart="840.56" type="adult">
    <walk from="464445691#0" to="-464445691#0" />
  </person>
  <person id="ped_227" depart="846.42" type="adult">
    <walk from="464445691#0" to="-464445691#0" />
  </person>
  <person id="ped_228" depart="847.47" type="elderly">
    <walk from="464445691#0" to="-464445691#0" />
  </person>
  <person id="ped_229" depart="848.04" type="elderly">
    <walk from="464445691#0" to="-464445691#0" />
  </person>
  <person id="ped_230" depart="858.78" type="elderly">
    <walk from="464445691#0" to="-464445691#0" />
  </person>
  <person id="ped_231" depart="861.75" type="adult">
    <walk from="464445691#0" to="-464445691#0" />
  </person>
  <person id="ped_232" depart="868.13" type="adult">
    <walk from="464445691#0" to="-464445691#0" />
  </person>
  <person id="ped_233" depart="876.30" type="adult">
    <walk from="464445691#0" to="-464445691#0" />
  </person>
  <person id="ped_234" depart="878.29" type="elderly">
    <walk from="464445691#0" to="-464445691#0" />
  </person>
  <person id="ped_235" depart="880.63" type="adult">
    <walk from="464445691#0" to="-464445691#0" />
  </person>
  <person id="ped_236" depart="882.52" type="adult">
    <walk from="464445691#0" to="-464445691#0" />
  </person>
  <person id="ped_237" depart="889.41" type="elderly">
    <walk from="464445691#0" to="-464445691#0" />
  </person>
  <person id="ped_238" depart="891.26" type="adult">
    <walk from="464445691#0" to="-464445691#0" />
  </person>
  <person id="ped_239" depart="895.27" type="adult">
    <walk from="464445691#0" to="-464445691#0" />
  </person>
  <person id="ped_240" depart="895.38" type="adult">
    <walk from="464445691#0" to="-464445691#0" />
  </person>
  <person id="ped_241" depart="896.50" type="elderly">
    <walk from="464445691#0" to="-464445691#0" />
  </person>
  <person id="ped_242" depart="903.68" type="adult">
    <walk from="464445691#0" to="-464445691#0" />
  </person>
  <person id="ped_243" depart="904.84" type="elderly">
    <walk from="464445691#0" to="-464445691#0" />
  </person>
  <person id="ped_244" depart="911.70" type="adult">
    <walk from="464445691#0" to="-464445691#0" />
  </person>
  <person id="ped_245" depart="913.06" type="adult">
    <walk from="464445691#0" to="-464445691#0" />
  </person>
  <person id="ped_246" depart="917.96" type="adult">
    <walk from="464445691#0" to="-464445691#0" />
  </person>
  <person id="ped_247" depart="921.66" type="adult">
    <walk from="464445691#0" to="-464445691#0" />
  </person>
  <person id="ped_248" depart="921.87" type="adult">
    <walk from="464445691#0" to="-464445691#0" />
  </person>
  <person id="ped_249" depart="921.88" type="elderly">
    <walk from="464445691#0" to="-464445691#0" />
  </person>
  <person id="ped_250" depart="925.25" type="adult">
    <walk from="464445691#0" to="-464445691#0" />
  </person>
  <person id="ped_251" depart="928.54" type="adult">
    <walk from="464445691#0" to="-464445691#0" />
  </person>
  <person id="ped_252" depart="931.11" type="adult">
    <walk from="464445691#0" to="-464445691#0" />
  </person>
  <person id="ped_253" depart="935.24" type="adult">
    <walk from="464445691#0" to="-464445691#0" />
  </person>
  <person id="ped_254" depart="937.34" type="adult">
    <walk from="464445691#0" to="-464445691#0" />
  </person>
  <person id="ped_255" depart="946.15" type="adult">
    <walk from="464445691#0" to="-464445691#0" />
  </person>
  <person id="ped_256" depart="946.87" type="adult">
    <walk from="464445691#0" to="-464445691#0" />
  </person>
  <person id="ped_257" depart="950.93" type="adult">
    <walk from="464445691#0" to="-464445691#0" />
  </person>
  <person id="ped_258" depart="955.43" type="adult">