<?xml version="1.0" encoding="UTF-8"?>

<!-- generated on 2026-04-17 02:49:55.051058 by Eclipse SUMO randomTrips.py v1.26.0
<configuration>
    <net-file value="/Users/junlee/Desktop/2026-1/js/result/tradeoff_pet_top12_seed12_60min_20260417_024953/sumo_nets/cw_23040/network.net.xml"/>
    <output-trip-file value="/Users/junlee/Desktop/2026-1/js/result/tradeoff_pet_top12_seed12_60min_20260417_024953/sumo_nets/cw_23040/routes_seed42.trips.xml"/>
    <route-file value="/Users/junlee/Desktop/2026-1/js/result/tradeoff_pet_top12_seed12_60min_20260417_024953/sumo_nets/cw_23040/routes_seed42.rou.xml"/>
    <vehicle-class value="passenger"/>
    <period value="1.9663621162215763"/>
</configuration>
-->

<routes xmlns:xsi="http://www.w3.org/2001/XMLSchema-instance" xsi:noNamespaceSchemaLocation="http://sumo.dlr.de/xsd/routes_file.xsd">
    <vType id="passenger" vClass="passenger"/>
    <trip id="0" depart="0.00" from="376666930#0" to="-224260190#0" type="passenger"/>
    <trip id="1" depart="1.97" from="-516163750#0" to="-384030401#1" type="passenger"/>
    <trip id="2" depart="3.93" from="376666932#1" to="376666931#4" type="passenger"/>
    <trip id="3" depart="5.90" from="585352852#0-AddedOffRampEdge" to="-376666921" type="passenger"/>
    <trip id="4" depart="7.87" from="1206220504#1" to="-224260190#0" type="passenger"/>
    <trip id="5" depart="9.83" from="-224260190#1" to="-376666932#1" type="passenger"/>
    <trip id="6" depart="11.80" from="376666930#1" to="333554718" type="passenger"/>
    <trip id="7" depart="13.76" from="-384030401#2" to="376666916#2" type="passenger"/>
    <trip id="8" depart="15.73" from="464445692#1" to="-1339655668" type="passenger"/>
    <trip id="9" depart="17.70" from="464445692#1" to="384030401#0" type="passenger"/>
    <trip id="10" depart="19.66" from="-376666921" to="-376666930#0" type="passenger"/>
    <trip id="11" depart="21.63" from="464445692#1" to="464445691#0" type="passenger"/>
    <trip id="12" depart="23.60" from="224260190#2" to="767111811#2" type="passenger"/>
    <trip id="13" depart="25.56" from="-778973690" to="37402371" type="passenger"/>
    <trip id="14" depart="27.53" from="516163750#1" to="376666930#1" type="passenger"/>
    <trip id="15" depart="29.50" from="376666931#3" to="-224260190#2" type="passenger"/>
    <trip id="16" depart="31.46" from="-778973690" to="-384030401#0" type="passenger"/>
    <trip id="17" depart="33.43" from="376666930#1" to="376666930#0" type="passenger"/>
    <trip id="18" depart="35.39" from="-376666931#3" to="464445691#0" type="passenger"/>
    <trip id="19" depart="37.36" from="331990404#1" to="376666932#1" type="passenger"/>
    <trip id="20" depart="39.33" from="-384030401#2" to="-224260190#0" type="passenger"/>
    <trip id="21" depart="41.29" from="615671505#0" to="224260190#0" type="passenger"/>
    <trip id="22" depart="43.26" from="331990404#1" to="-516163750#1" type="passenger"/>
    <trip id="23" depart="45.23" from="1206220503#1" to="-384030401#1" type="passenger"/>
    <trip id="24" depart="47.19" from="-376666916#2" to="-224260190#2" type="passenger"/>
    <trip id="25" depart="49.16" from="-376666930#0" to="376666930#2" type="passenger"/>
    <trip id="26" depart="51.13" from="-1339655668" to="384030401#2" type="passenger"/>
    <trip id="27" depart="53.09" from="376666931#1" to="333554718" type="passenger"/>
    <trip id="28" depart="55.06" from="-376666930#0" to="219696191#0" type="passenger"/>
    <trip id="29" depart="57.02" from="585352852#0" to="-516163750#1" type="passenger"/>
    <trip id="30" depart="58.99" from="376666916#0" to="-376666931#2" type="passenger"/>
    <trip id="31" depart="60.96" from="384030401#1" to="333554718" type="passenger"/>
    <trip id="32" depart="62.92" from="-1339655668" to="-778973690" type="passenger"/>
    <trip id="33" depart="64.89" from="585352852#0" to="585341907#0" type="passenger"/>
    <trip id="34" depart="66.86" from="-631259844" to="-376666916#0" type="passenger"/>
    <trip id="35" depart="68.82" from="-376666916#2" to="224260190#2" type="passenger"/>
    <trip id="36" depart="70.79" from="-376666916#1" to="464445691#3" type="passenger"/>
    <trip id="37" depart="72.76" from="384030401#1" to="-376666931#0" type="passenger"/>
    <trip id="38" depart="74.72" from="218962181" to="37402371" type="passenger"/>
    <trip id="39" depart="76.69" from="1206220504#1" to="-384030401#0" type="passenger"/>
    <trip id="40" depart="78.65" from="224260190#2" to="464445691#0" type="passenger"/>
    <trip id="41" depart="80.62" from="-376666930#1" to="-384030401#1" type="passenger"/>
    <trip id="42" depart="82.59" from="-376666916#1" to="376666930#2" type="passenger"/>
    <trip id="43" depart="84.55" from="-384030401#2" to="631259843" type="passenger"/>
    <trip id="44" depart="86.52" from="-384030401#1" to="-376666931#0" type="passenger"/>
    <trip id="45" depart="88.49" from="218962181" to="516163750#0" type="passenger"/>
    <trip id="46" depart="90.45" from="464445692#1" to="-376666932#0" type="passenger"/>
    <trip id="47" depart="92.42" from="1206220504#1" to="224260190#1" type="passenger"/>
    <trip id="48" depart="94.39" from="376666932#0" to="376666931#4" type="passenger"/>
    <trip id="49" depart="96.35" from="778973690" to="-376666930#0" type="passenger"/>
    <trip id="50" depart="98.32" from="1206220504#0" to="1206220503#0" type="passenger"/>
    <trip id="51" depart="100.28" from="-376666932#1" to="219696191#1" type="passenger"/>
    <trip id="52" depart="102.25" from="331990404#0" to="-224260190#2" type="passenger"/>
    <trip id="53" depart="104.22" from="913268036" to="585341907#0" type="passenger"/>
    <trip id="54" depart="106.18" from="1206220503#1" to="-376666916#0" type="passenger"/>
    <trip id="55" depart="108.15" from="-778973690" to="778973690" type="passenger"/>
    <trip id="56" depart="110.12" from="-516163750#0" to="464445692#1" type="passenger"/>
    <trip id="57" depart="112.08" from="331990404#1" to="384030401#2" type="passenger"/>
    <trip id="58" depart="114.05" from="331990404#0" to="464445691#1" type="passenger"/>
    <trip id="59" depart="116.02" from="-224260190#3" to="376666916#2" type="passenger"/>
    <trip id="60" depart="117.98" from="-376666916#1" to="-376666932#0" type="passenger"/>
    <trip id="61" depart="119.95" from="1206220504#1" to="376666916#2" type="passenger"/>
    <trip id="62" depart="121.91" from="-384030401#0" to="384030401#2" type="passenger"/>
    <trip id="63" depart="123.88" from="-376666916#1" to="224260190#0" type="passenger"/>
    <trip id="64" depart="125.85" from="913268036" to="913268036" type="passenger"/>
    <trip id="65" depart="127.81" from="-376666916#1" to="-384030401#0" type="passenger"/>
    <trip id="66" depart="129.78" from="-778973690" to="-376666931#2" type="passenger"/>
    <trip id="67" depart="131.75" from="516163750#1" to="384030401#0" type="passenger"/>
    <trip id="68" depart="133.71" from="376666930#1" to="-1339655668" type="passenger"/>
    <trip id="69" depart="135.68" from="-376666930#2" to="-376666930#2" type="passenger"/>
    <trip id="70" depart="137.65" from="-376666930#0" to="37402371" type="passenger"/>
    <trip id="71" depart="139.61" from="-516163750#0" to="376666930#0" type="passenger"/>
    <trip id="72" depart="141.58" from="376666931#4" to="-376666932#1" type="passenger"/>
    <trip id="73" depart="143.54" from="376666930#0" to="-516163750#1" type="passenger"/>
    <trip id="74" depart="145.51" from="-1339655668" to="464445692#0" type="passenger"/>
    <trip id="75" depart="147.48" from="376666930#0" to="-516163750#1" type="passenger"/>
    <trip id="76" depart="149.44" from="376666932#1" to="37402371" type="passenger"/>
    <trip id="77" depart="151.41" from="1206220507#0" to="-1339655668" type="passenger"/>
    <trip id="78" depart="153.38" from="585352852#1" to="37402371" type="passenger"/>
    <trip id="79" depart="155.34" from="516163750#1" to="376666916#2" type="passenger"/>
    <trip id="80" depart="157.31" from="-376666931#1" to="-376666931#0" type="passenger"/>
    <trip id="81" depart="159.28" from="-631259844" to="631259843" type="passenger"/>
    <trip id="82" depart="161.24" from="585352852#1" to="-384030401#0" type="passenger"/>
    <trip id="83" depart="163.21" from="1206220504#0" to="376666930#1" type="passenger"/>
    <trip id="84" depart="165.17" from="-224260190#1" to="464445691#0" type="passenger"/>
    <trip id="85" depart="167.14" from="464445692#1" to="-516163750#1" type="passenger"/>
    <trip id="86" depart="169.11" from="464445691#1" to="-376666930#1" type="passenger"/>
    <trip id="87" depart="171.07" from="-384030401#2" to="585341906#0" type="passenger"/>
    <trip id="88" depart="173.04" from="-224260190#1" to="-376666932#0" type="passenger"/>
    <trip id="89" depart="175.01" from="376666930#0" to="1206223946#1" type="passenger"/>
    <trip id="90" depart="176.97" from="778973690" to="333554718" type="passenger"/>
    <trip id="91" depart="178.94" from="-376666930#0" to="219696191#0" type="passenger"/>
    <trip id="92" depart="180.91" from="1206220503#0" to="376666916#1" type="passenger"/>
    <trip id="93" depart="182.87" from="-464445691#3" to="384030401#1" type="passenger"/>
    <trip id="94" depart="184.84" from="224260190#2" to="384030401#2" type="passenger"/>
    <trip id="95" depart="186.80" from="376666932#1" to="376666931#4" type="passenger"/>
    <trip id="96" depart="188.77" from="376666930#2" to="1206220503#0" type="passenger"/>
    <trip id="97" depart="190.74" from="-631259844" to="1206223946#1" type="passenger"/>
    <trip id="98" depart="192.70" from="-376666930#2" to="1339655668" type="passenger"/>
    <trip id="99" depart="194.67" from="585352852#1" to="376666930#1" type="passenger"/>
    <trip id="100" depart="196.64" from="-631259844" to="37402371" type="passenger"/>
    <trip id="101" depart="198.60" from="1206220507#0" to="376666916#2" type="passenger"/>
    <trip id="102" depart="200.57" from="376666930#1" to="224260190#0" type="passenger"/>
    <trip id="103" depart="202.54" from="218962181" to="631259843" type="passenger"/>
    <trip id="104" depart="204.50" from="464445692#0" to="-376666931#3" type="passenger"/>
    <trip id="105" depart="206.47" from="376666930#0" to="1206220503#0" type="passenger"/>
    <trip id="106" depart="208.43" from="516163750#0" to="464445691#3" type="passenger"/>
    <trip id="107" depart="210.40" from="376666931#0" to="-384030401#1" type="passenger"/>
    <trip id="108" depart="212.37" from="-384030401#0" to="-224260190#0" type="passenger"/>
    <trip id="109" depart="214.33" from="1206220504#1" to="376666930#2" type="passenger"/>
    <trip id="110" depart="216.30" from="-376666932#1" to="384030401#0" type="passenger"/>
    <trip id="111" depart="218.27" from="376666930#2" to="-1339655668" type="passenger"/>
    <trip id="112" depart="220.23" from="384030401#0" to="464445692#0" type="passenger"/>
    <trip id="113" depart="222.20" from="-376666931#4" to="767111811#1" type="passenger"/>
    <trip id="114" depart="224.17" from="224260190#1" to="-224260190#2" type="passenger"/>
    <trip id="115" depart="226.13" from="-464445691#1" to="585341907#2" type="passenger"/>
    <trip id="116" depart="228.10" from="1339655668" to="516163750#1" type="passenger"/>
    <trip id="117" depart="230.06" from="376666931#0" to="778973690" type="passenger"/>
    <trip id="118" depart="232.03" from="585352852#0-AddedOffRampEdge" to="376666930#0" type="passenger"/>
    <trip id="119" depart="234.00" from="516163750#1" to="37402371" type="passenger"/>
    <trip id="120" depart="235.96" from="585352852#1" to="464445691#1" type="passenger"/>
    <trip id="121" depart="237.93" from="218962181" to="-516163750#0" type="passenger"/>
    <trip id="122" depart="239.90" from="-516163750#0" to="-778973690" type="passenger"/>
    <trip id="123" depart="241.86" from="224260190#2" to="-376666931#1" type="passenger"/>
    <trip id="124" depart="243.83" from="376666931#3" to="-376666916#0" type="passenger"/>
    <trip id="125" depart="245.80" from="1206220504#0" to="333554718" type="passenger"/>
    <trip id="126" depart="247.76" from="1206220504#1" to="-384030401#0" type="passenger"/>
    <trip id="127" depart="249.73" from="1206220504#1" to="631259843" type="passenger"/>
    <trip id="128" depart="251.69" from="1206220503#0" to="-1339655668" type="passenger"/>
    <trip id="129" depart="253.66" from="1206220504#1" to="464445691#1" type="passenger"/>
    <trip id="130" depart="255.63" from="331990404#0" to="376666930#0" type="passenger"/>
    <trip id="131" depart="257.59" from="-384030401#2" to="-384030401#1" type="passenger"/>
    <trip id="132" depart="259.56" from="1206220507#0" to="-224260190#0" type="passenger"/>
    <trip id="133" depart="261.53" from="1206220504#0" to="-376666931#3" type="passenger"/>
    <trip id="134" depart="263.49" from="1339655669" to="-376666931#0" type="passenger"/>
    <trip id="135" depart="265.46" from="376666921" to="-224260190#0" type="passenger"/>
    <trip id="136" depart="267.43" from="1206220503#1" to="376666916#0" type="passenger"/>
    <trip id="137" depart="269.39" from="-376666930#2" to="224260190#0" type="passenger"/>
    <trip id="138" depart="271.36" from="-384030401#1" to="-778973690" type="passenger"/>
    <trip id="139" depart="273.32" from="384030401#0" to="585341907#0" type="passenger"/>
    <trip id="140" depart="275.29" from="-224260190#0" to="333554718" type="passenger"/>
    <trip id="141" depart="277.26" from="913268036" to="1206220503#1" type="passenger"/>
    <trip id="142" depart="279.22" from="376666930#1" to="464445692#1" type="passenger"/>
    <trip id="143" depart="281.19" from="376666930#1" to="464445691#3" type="passenger"/>
    <trip id="144" depart="283.16" from="-224260190#0" to="-376666931#2" type="passenger"/>
    <trip id="145" depart="285.12" from="-376666930#1" to="376666931#3" type="passenger"/>
    <trip id="146" depart="287.09" from="331990404#3" to="-384030401#1" type="passenger"/>
    <trip id="147" depart="289.06" from="376666931#2" to="464445692#0" type="passenger"/>
    <trip id="148" depart="291.02" from="-376666931#3" to="376666930#0" type="passenger"/>
    <trip id="149" depart="292.99" from="384030401#0" to="-376666930#2" type="passenger"/>
    <trip id="150" depart="294.95" from="516163750#0" to="767111811#1" type="passenger"/>
    <trip id="151" depart="296.92" from="-376666930#0" to="-224260190#0" type="passenger"/>
    <trip id="152" depart="298.89" from="376666931#2" to="376666930#2" type="passenger"/>
    <trip id="153" depart="300.85" from="-376666921" to="464445692#0" type="passenger"/>
    <trip id="154" depart="302.82" from="-376666930#1" to="778973690" type="passenger"/>
    <trip id="155" depart="304.79" from="464445691#1" to="1206220503#1" type="passenger"/>
    <trip id="156" depart="306.75" from="224260190#0" to="1206220503#1" type="passenger"/>
    <trip id="157" depart="308.72" from="585341906#0" to="585341906#2" type="passenger"/>
    <trip id="158" depart="310.69" from="-376666930#0" to="767111811#1" type="passenger"/>
    <trip id="159" depart="312.65" from="376666930#0" to="585341906#2" type="passenger"/>
    <trip id="160" depart="314.62" from="376666931#3" to="219696191#0" type="passenger"/>
    <trip id="161" depart="316.58" from="376666932#0" to="767111811#1" type="passenger"/>
    <trip id="162" depart="318.55" from="-516163750#0" to="585341906#0" type="passenger"/>
    <trip id="163" depart="320.52" from="224260190#2" to="224260190#2" type="passenger"/>
    <trip id="164" depart="322.48" from="1206220507#0" to="464445691#0" type="passenger"/>
    <trip id="165" depart="324.45" from="-516163750#0" to="585341907#2" type="passenger"/>
    <trip id="166" depart="326.42" from="516163750#1" to="-376666921" type="passenger"/>
    <trip id="167" depart="328.38" from="1339655669" to="376666930#0" type="passenger"/>
    <trip id="168" depart="330.35" from="-778973690" to="-224260190#0" type="passenger"/>
    <trip id="169" depart="332.32" from="-384030401#1" to="516163750#1" type="passenger"/>
    <trip id="170" depart="334.28" from="-376666916#2" to="384030401#2" type="passenger"/>
    <trip id="171" depart="336.25" from="-376666921" to="-384030401#1" type="passenger"/>
    <trip id="172" depart="338.21" from="376666932#1" to="1206220503#0" type="passenger"/>
    <trip id="173" depart="340.18" from="376666931#3" to="-516163750#1" type="passenger"/>
    <trip id="174" depart="342.15" from="-376666932#1" to="-376666930#2" type="passenger"/>
    <trip id="175" depart="344.11" from="224260190#2" to="464445692#0" type="passenger"/>
    <trip id="176" depart="346.08" from="-376666932#1" to="-384030401#1" type="passenger"/>
    <trip id="177" depart="348.05" from="-516163750#1" to="-376666930#0" type="passenger"/>
    <trip id="178" depart="350.01" from="-376666931#4" to="-1339655669" type="passenger"/>
    <trip id="179" depart="351.98" from="376666931#2" to="-376666931#0" type="passenger"/>
    <trip id="180" depart="353.95" from="1339655669" to="219696191#0" type="passenger"/>
    <trip id="181" depart="355.91" from="-376666932#1" to="-224260190#2" type="passenger"/>
    <trip id="182" depart="357.88" from="516163750#0" to="1206223946#1" type="passenger"/>
    <trip id="183" depart="359.84" from="-376666916#1" to="376666930#2" type="passenger"/>
    <trip id="184" depart="361.81" from="-224260190#3" to="-376666931#2" type="passenger"/>
    <trip id="185" depart="363.78" from="913268036" to="-376666930#2" type="passenger"/>
    <trip id="186" depart="365.74" from="384030401#1" to="376666930#0" type="passenger"/>
    <trip id="187" depart="367.71" from="464445691#1" to="-384030401#1" type="passenger"/>
    <trip id="188" depart="369.68" from="224260190#1" to="219696191#1" type="passenger"/>
    <trip id="189" depart="371.64" from="376666921" to="376666930#0" type="passenger"/>
    <trip id="190" depart="373.61" from="-384030401#1" to="-384030401#0" type="passenger"/>
    <trip id="191" depart="375.58" from="376666930#2" to="-376666931#2" type="passenger"/>
    <trip id="192" depart="377.54" from="-1339655668" to="219696191#1" type="passenger"/>
    <trip id="193" depart="379.51" from="376666931#3" to="219696191#1" type="passenger"/>
    <trip id="194" depart="381.47" from="464445691#1" to="376666930#2" type="passenger"/>
    <trip id="195" depart="383.44" from="1206220504#1" to="333554718" type="passenger"/>
    <trip id="196" depart="385.41" from="376666930#1" to="631259843" type="passenger"/>
    <trip id="197" depart="387.37" from="384030401#0" to="376666916#1" type="passenger"/>
    <trip id="198" depart="389.34" from="-631259843" to="-376666930#2" type="passenger"/>
    <trip id="199" depart="391.31" from="376666931#1" to="384030401#0" type="passenger"/>
    <trip id="200" depart="393.27" from="-224260190#2" to="219696191#0" type="passenger"/>
    <trip id="201" depart="395.24" from="-376666916#2" to="767111811#1" type="passenger"/>
    <trip id="202" depart="397.21" from="516163750#1" to="376666916#1" type="passenger"/>
    <trip id="203" depart="399.17" from="376666931#0" to="-516163750#1" type="passenger"/>
    <trip id="204" depart="401.14" from="-224260190#2" to="464445691#3" type="passenger"/>
    <trip id="205" depart="403.10" from="615671505#0" to="-376666931#4" type="passenger"/>
    <trip id="206" depart="405.07" from="464445692#1" to="37402371" type="passenger"/>
    <trip id="207" depart="407.04" from="331990404#0" to="1339655668" type="passenger"/>
    <trip id="208" depart="409.00" from="384030401#0" to="376666930#2" type="passenger"/>
    <trip id="209" depart="410.97" from="384030401#1" to="-376666932#1" type="passenger"/>
    <trip id="210" depart="412.94" from="-376666930#1" to="767111811#2" type="passenger"/>
    <trip id="211" depart="414.90" from="331990404#1" to="-376666930#0" type="passenger"/>
    <trip id="212" depart="416.87" from="913268036" to="631259844" type="passenger"/>
    <trip id="213" depart="418.84" from="1339655669" to="-376666930#2" type="passenger"/>
    <trip id="214" depart="420.80" from="516163750#1" to="224260190#3" type="passenger"/>
    <trip id="215" depart="422.77" from="-516163750#0" to="585341907#0" type="passenger"/>
    <trip id="216" depart="424.73" from="331990404#0" to="1206220507#0" type="passenger"/>
    <trip id="217" depart="426.70" from="585352852#0" to="585352852#1" type="passenger"/>
    <trip id="218" depart="428.67" from="-516163750#1" to="516163750#0" type="passenger"/>
    <trip id="219" depart="430.63" from="224260190#0" to="585341906#2" type="passenger"/>
    <trip id="220" depart="432.60" from="224260190#2" to="1206220503#1" type="passenger"/>
    <trip id="221" depart="434.57" from="331990404#1" to="333554718" type="passenger"/>
    <trip id="222" depart="436.53" from="1339655668" to="-778973690" type="passenger"/>
    <trip id="223" depart="438.50" from="-376666932#1" to="384030401#0" type="passenger"/>
    <trip id="224" depart="440.47" from="464445691#0" to="-224260190#1" type="passenger"/>
    <trip id="225" depart="442.43" from="376666932#1" to="384030401#1" type="passenger"/>
    <trip id="226" depart="444.40" from="376666930#2" to="585341906#2" type="passenger"/>
    <trip id="227" depart="446.36" from="778973690" to="224260190#3" type="passenger"/>
    <trip id="228" depart="448.33" from="585352852#0" to="219696191#0" type="passenger"/>
    <trip id="229" depart="450.30" from="224260190#1" to="224260190#0" type="passenger"/>
    <trip id="230" depart="452.26" from="376666931#4" to="1339655668" type="passenger"/>
    <trip id="231" depart="454.23" from="376666930#1" to="-376666931#2" type="passenger"/>
    <trip id="232" depart="456.20" from="1339655669" to="767111811#2" type="passenger"/>
    <trip id="233" depart="458.16" from="376666930#1" to="585341907#2" type="passenger"/>
    <trip id="234" depart="460.13" from="376666931#4" to="464445691#3" type="passenger"/>
    <trip id="235" depart="462.10" from="-376666916#0" to="376666930#2" type="passenger"/>
    <trip id="236" depart="464.06" from="376666932#1" to="219696191#0" type="passenger"/>
    <trip id="237" depart="466.03" from="-376666921" to="376666930#2" type="passenger"/>
    <trip id="238" depart="467.99" from="376666931#2" to="631259843" type="passenger"/>
    <trip id="239" depart="469.96" from="-224260190#3" to="516163750#1" type="passenger"/>
    <trip id="240" depart="471.93" from="331990404#3" to="516163750#0" type="passenger"/>
    <trip id="241" depart="473.89" from="-464445691#3" to="-516163750#0" type="passenger"/>
    <trip id="242" depart="475.86" from="-1339655668" to="516163750#1" type="passenger"/>
    <trip id="243" depart="477.83" from="585352852#1" to="376666931#4" type="passenger"/>
    <trip id="244" depart="479.79" from="-464445691#1" to="585341907#2" type="passenger"/>
    <trip id="245" depart="481.76" from="331990404#3" to="376666916#1" type="passenger"/>
    <trip id="246" depart="483.73" from="-516163750#0" to="376666916#0" type="passenger"/>
    <trip id="247" depart="485.69" from="376666931#1" to="464445691#1" type="passenger"/>
    <trip id="248" depart="487.66" from="-224260190#3" to="376666930#0" type="passenger"/>
    <trip id="249" depart="489.62" from="-516163750#1" to="516163750#1" type="passenger"/>
    <trip id="250" depart="491.59" from="376666930#0" to="376666930#1" type="passenger"/>
    <trip id="251" depart="493.56" from="376666931#0" to="384030401#2" type="passenger"/>
    <trip id="252" depart="495.52" from="376666930#2" to="585341907#0" type="passenger"/>
    <trip id="253" depart="497.49" from="376666921" to="631259843" type="passenger"/>
    <trip id="254" depart="499.46" from="376666932#0" to="-376666921" type="passenger"/>
    <trip id="255" depart="501.42" from="-631259843" to="464445691#1" type="passenger"/>
    <trip id="256" depart="503.39" from="-376666931#4" to="-376666931#0" type="passenger"/>
    <trip id="257" depart="505.36" from="224260190#2" to="767111811#2" type="passenger"/>
    <trip id="258" depart="507.32" from="224260190#2" to="631259844" type="passenger"/>
    <trip id="259" depart="509.29" from="516163750#1" to="-516163750#0" type="passenger"/>
    <trip id="260" depart="511.25" from="516163750#0" to="224260190#2" type="passenger"/>
    <trip id="261" depart="513.22" from="464445692#1" to="464445691#1" type="passenger"/>
    <trip id="262" depart="515.19" from="376666932#0" to="778973690" type="passenger"/>
    <trip id="263" depart="517.15" from="-224260190#0" to="333554718" type="passenger"/>
    <trip id="264" depart="519.12" from="1339655668" to="376666931#4" type="passenger"/>
    <trip id="265" depart="521.09" from="376666931#0" to="376666916#2" type="passenger"/>
    <trip id="266" depart="523.05" from="331990404#1" to="631259844" type="passenger"/>
    <trip id="267" depart="525.02" from="-384030401#2" to="-376666916#0" type="passenger"/>
    <trip id="268" depart="526.99" from="516163750#0" to="631259844" type="passenger"/>
    <trip id="269" depart="528.95" from="-631259844" to="1206223946#1" type="passenger"/>
    <trip id="270" depart="530.92" from="-631259844" to="224260190#3" type="passenger"/>
    <trip id="271" depart="532.88" from="-376666921" to="619147740" type="passenger"/>
    <trip id="272" depart="534.85" from="-376666930#2" to="219696191#1" type="passenger"/>
    <trip id="273" depart="536.82" from="376666931#0" to="464445691#1" type="passenger"/>
    <trip id="274" depart="538.78" from="376666932#1" to="-376666931#2" type="passenger"/>
    <trip id="275" depart="540.75" from="1206220504#1" to="-376666930#0" type="passenger"/>
    <trip id="276" depart="542.72" from="-778973690" to="219696191#1" type="passenger"/>
    <trip id="277" depart="544.68" from="-376666921" to="376666932#1" type="passenger"/>
    <trip id="278" depart="546.65" from="331990404#0" to="778973690" type="passenger"/>
    <trip id="279" depart="548.62" from="-376666932#1" to="-376666930#2" type="passenger"/>
    <trip id="280" depart="550.58" from="-376666930#1" to="376666916#0" type="passenger"/>
    <trip id="281" depart="552.55" from="-376666916#0" to="464445692#0" type="passenger"/>
    <trip id="282" depart="554.51" from="-384030401#1" to="-384030401#1" type="passenger"/>
    <trip id="283" depart="556.48" from="-376666931#1" to="-376666931#0" type="passenger"/>
    <trip id="284" depart="558.45" from="376666930#2" to="-224260190#0" type="passenger"/>
    <trip id="285" depart="560.41" from="-224260190#0" to="516163750#0" type="passenger"/>
    <trip id="286" depart="562.38" from="-376666931#4" to="-224260190#2" type="passenger"/>
    <trip id="287" depart="564.35" from="376666932#1" to="224260190#1" type="passenger"/>
    <trip id="288" depart="566.31" from="224260190#1" to="224260190#0" type="passenger"/>
    <trip id="289" depart="568.28" from="218962181" to="1206223946#1" type="passenger"/>
    <trip id="290" depart="570.25" from="376666931#1" to="224260190#3" type="passenger"/>
    <trip id="291" depart="572.21" from="-376666916#2" to="376666930#0" type="passenger"/>
    <trip id="292" depart="574.18" from="376666930#0" to="37402371" type="passenger"/>
    <trip id="293" depart="576.14" from="224260190#2" to="219696191#1" type="passenger"/>
    <trip id="294" depart="578.11" from="376666916#0" to="-376666930#0" type="passenger"/>
    <trip id="295" depart="580.08" from="376666930#1" to="464445692#0" type="passenger"/>
    <trip id="296" depart="582.04" from="376666931#4" to="-384030401#0" type="passenger"/>
    <trip id="297" depart="584.01" from="1206220504#1" to="-376666930#0" type="passenger"/>
    <trip id="298" depart="585.98" from="1206220507#0" to="376666931#3" type="passenger"/>
    <trip id="299" depart="587.94" from="-778973690" to="-376666931#2" type="passenger"/>
    <trip id="300" depart="589.91" from="516163750#1" to="-376666930#0" type="passenger"/>
    <trip id="301" depart="591.87" from="-376666921" to="464445691#1" type="passenger"/>
    <trip id="302" depart="593.84" from="464445692#1" to="37402371" type="passenger"/>
    <trip id="303" depart="595.81" from="376666931#4" to="767111811#2" type="passenger"/>
    <trip id="304" depart="597.77" from="376666916#0" to="1206220503#1" type="passenger"/>
    <trip id="305" depart="599.74" from="376666930#2" to="-384030401#1" type="passenger"/>
    <trip id="306" depart="601.71" from="-376666930#0" to="585341907#2" type="passenger"/>
    <trip id="307" depart="603.67" from="331990404#3" to="585341906#0" type="passenger"/>
    <trip id="308" depart="605.64" from="585341906#0" to="767111811#2" type="passenger"/>
    <trip id="309" depart="607.61" from="516163750#0" to="376666930#0" type="passenger"/>
    <trip id="310" depart="609.57" from="376666930#0" to="-224260190#0" type="passenger"/>
    <trip id="311" depart="611.54" from="-516163750#0" to="-376666931#4" type="passenger"/>
    <trip id="312" depart="613.50" from="1206220503#1" to="-376666931#1" type="passenger"/>
    <trip id="313" depart="615.47" from="376666930#0" to="-224260190#0" type="passenger"/>
    <trip id="314" depart="617.44" from="376666932#1" to="-384030401#0" type="passenger"/>
    <trip id="315" depart="619.40" from="1206220504#1" to="1206220503#0" type="passenger"/>
    <trip id="316" depart="621.37" from="-778973690" to="384030401#2" type="passenger"/>
    <trip id="317" depart="623.34" from="464445691#0" to="376666916#0" type="passenger"/>
    <trip id="318" depart="625.30" from="-376666916#2" to="-224260190#2" type="passenger"/>
    <trip id="319" depart="627.27" from="376666931#0" to="-516163750#1" type="passenger"/>
    <trip id="320" depart="629.24" from="376666930#2" to="224260190#2" type="passenger"/>
    <trip id="321" depart="631.20" from="384030401#0" to="-376666930#2" type="passenger"/>
    <trip id="322" depart="633.17" from="376666931#1" to="224260190#2" type="passenger"/>
    <trip id="323" depart="635.13" from="376666931#0" to="-224260190#1" type="passenger"/>