<?xml version="1.0" encoding="UTF-8"?>

<!-- generated on 2026-04-17 02:50:00.499639 by Eclipse SUMO randomTrips.py v1.26.0
<configuration>
    <net-file value="/Users/junlee/Desktop/2026-1/js/result/tradeoff_pet_top12_seed12_60min_20260417_024953/sumo_nets/cw_23040/network.net.xml"/>
    <output-trip-file value="/Users/junlee/Desktop/2026-1/js/result/tradeoff_pet_top12_seed12_60min_20260417_024953/sumo_nets/cw_23040/routes_seed49.trips.xml"/>
    <route-file value="/Users/junlee/Desktop/2026-1/js/result/tradeoff_pet_top12_seed12_60min_20260417_024953/sumo_nets/cw_23040/routes_seed49.rou.xml"/>
    <vehicle-class value="passenger"/>
    <seed value="49"/>
    <period value="1.9891788845606728"/>
</configuration>
-->

<routes xmlns:xsi="http://www.w3.org/2001/XMLSchema-instance" xsi:noNamespaceSchemaLocation="http://sumo.dlr.de/xsd/routes_file.xsd">
    <vType id="passenger" vClass="passenger"/>
    <trip id="0" depart="0.00" from="-376666916#0" to="1339655668" type="passenger"/>
    <trip id="1" depart="1.99" from="-376666930#0" to="464445691#3" type="passenger"/>
    <trip id="2" depart="3.98" from="224260190#0" to="-224260190#2" type="passenger"/>
    <trip id="3" depart="5.97" from="-224260190#2" to="464445691#0" type="passenger"/>
    <trip id="4" depart="7.96" from="331990404#3" to="1206223946#1" type="passenger"/>
    <trip id="5" depart="9.95" from="464445691#0" to="-516163750#1" type="passenger"/>
    <trip id="6" depart="11.94" from="376666931#1" to="631259844" type="passenger"/>
    <trip id="7" depart="13.92" from="-384030401#0" to="464445692#0" type="passenger"/>
    <trip id="8" depart="15.91" from="-376666916#0" to="-516163750#0" type="passenger"/>
    <trip id="9" depart="17.90" from="-464445691#3" to="219696191#0" type="passenger"/>
    <trip id="10" depart="19.89" from="331990404#0" to="333554718" type="passenger"/>
    <trip id="11" depart="21.88" from="516163750#1" to="-376666916#0" type="passenger"/>
    <trip id="12" depart="23.87" from="376666930#2" to="219696191#0" type="passenger"/>
    <trip id="13" depart="25.86" from="376666931#4" to="-376666931#2" type="passenger"/>
    <trip id="14" depart="27.85" from="1206223946#1" to="767111811#2" type="passenger"/>
    <trip id="15" depart="29.84" from="-376666921" to="1206223946#1" type="passenger"/>
    <trip id="16" depart="31.83" from="-376666931#4" to="-516163750#1" type="passenger"/>
    <trip id="17" depart="33.82" from="-464445691#3" to="631259844" type="passenger"/>
    <trip id="18" depart="35.81" from="1339655668" to="-376666930#2" type="passenger"/>
    <trip id="19" depart="37.79" from="331990404#3" to="631259843" type="passenger"/>
    <trip id="20" depart="39.78" from="331990404#3" to="464445691#1" type="passenger"/>
    <trip id="21" depart="41.77" from="-778973690" to="-224260190#0" type="passenger"/>
    <trip id="22" depart="43.76" from="224260190#0" to="1206220503#1" type="passenger"/>
    <trip id="23" depart="45.75" from="331990404#3" to="767111811#2" type="passenger"/>
    <trip id="24" depart="47.74" from="224260190#2" to="631259844" type="passenger"/>
    <trip id="25" depart="49.73" from="-1339655668" to="-224260190#0" type="passenger"/>
    <trip id="26" depart="51.72" from="-376666916#1" to="219696191#1" type="passenger"/>
    <trip id="27" depart="53.71" from="778973690" to="631259843" type="passenger"/>
    <trip id="28" depart="55.70" from="376666931#4" to="585341906#0" type="passenger"/>
    <trip id="29" depart="57.69" from="-464445691#3" to="-376666930#2" type="passenger"/>
    <trip id="30" depart="59.68" from="585352852#0" to="376666921" type="passenger"/>
    <trip id="31" depart="61.66" from="-516163750#0" to="376666916#2" type="passenger"/>
    <trip id="32" depart="63.65" from="-376666930#1" to="-224260190#1" type="passenger"/>
    <trip id="33" depart="65.64" from="-376666930#1" to="631259844" type="passenger"/>
    <trip id="34" depart="67.63" from="224260190#0" to="767111811#2" type="passenger"/>
    <trip id="35" depart="69.62" from="-516163750#1" to="224260190#1" type="passenger"/>
    <trip id="36" depart="71.61" from="376666931#4" to="-1339655669" type="passenger"/>
    <trip id="37" depart="73.60" from="376666931#0" to="-376666932#1" type="passenger"/>
    <trip id="38" depart="75.59" from="-376666930#1" to="585341906#2" type="passenger"/>
    <trip id="39" depart="77.58" from="-224260190#2" to="384030401#2" type="passenger"/>
    <trip id="40" depart="79.57" from="615671505#0" to="-376666930#0" type="passenger"/>
    <trip id="41" depart="81.56" from="-516163750#0" to="767111811#2" type="passenger"/>
    <trip id="42" depart="83.55" from="-376666930#2" to="1206220503#0" type="passenger"/>
    <trip id="43" depart="85.53" from="331990404#1" to="-376666931#4" type="passenger"/>
    <trip id="44" depart="87.52" from="-631259843" to="-376666921" type="passenger"/>
    <trip id="45" depart="89.51" from="-376666916#0" to="224260190#0" type="passenger"/>
    <trip id="46" depart="91.50" from="615671505#0" to="464445691#1" type="passenger"/>
    <trip id="47" depart="93.49" from="-376666930#2" to="384030401#2" type="passenger"/>
    <trip id="48" depart="95.48" from="376666921" to="464445692#0" type="passenger"/>
    <trip id="49" depart="97.47" from="-376666930#1" to="-376666932#0" type="passenger"/>
    <trip id="50" depart="99.46" from="-376666931#3" to="1206220503#0" type="passenger"/>
    <trip id="51" depart="101.45" from="-376666932#1" to="224260190#1" type="passenger"/>
    <trip id="52" depart="103.44" from="585352852#0-AddedOffRampEdge" to="224260190#2" type="passenger"/>
    <trip id="53" depart="105.43" from="585352852#0-AddedOffRampEdge" to="224260190#3" type="passenger"/>
    <trip id="54" depart="107.42" from="-376666930#0" to="767111811#2" type="passenger"/>
    <trip id="55" depart="109.40" from="-224260190#3" to="631259843" type="passenger"/>
    <trip id="56" depart="111.39" from="1206220504#1" to="516163750#1" type="passenger"/>
    <trip id="57" depart="113.38" from="778973690" to="-376666931#4" type="passenger"/>
    <trip id="58" depart="115.37" from="-384030401#1" to="384030401#2" type="passenger"/>
    <trip id="59" depart="117.36" from="224260190#0" to="224260190#3" type="passenger"/>
    <trip id="60" depart="119.35" from="-224260190#1" to="-376666921" type="passenger"/>
    <trip id="61" depart="121.34" from="376666931#3" to="585341906#2" type="passenger"/>
    <trip id="62" depart="123.33" from="-224260190#2" to="224260190#1" type="passenger"/>
    <trip id="63" depart="125.32" from="-464445691#1" to="333554718" type="passenger"/>
    <trip id="64" depart="127.31" from="-384030401#2" to="-516163750#1" type="passenger"/>
    <trip id="65" depart="129.30" from="-516163750#1" to="376666932#1" type="passenger"/>
    <trip id="66" depart="131.29" from="224260190#2" to="384030401#2" type="passenger"/>
    <trip id="67" depart="133.27" from="-376666932#1" to="-384030401#0" type="passenger"/>
    <trip id="68" depart="135.26" from="376666932#0" to="376666921" type="passenger"/>
    <trip id="69" depart="137.25" from="219696191#0" to="219696191#1" type="passenger"/>
    <trip id="70" depart="139.24" from="464445691#0" to="585341907#2" type="passenger"/>
    <trip id="71" depart="141.23" from="-384030401#1" to="-384030401#1" type="passenger"/>
    <trip id="72" depart="143.22" from="376666916#0" to="37402371" type="passenger"/>
    <trip id="73" depart="145.21" from="376666930#2" to="-516163750#1" type="passenger"/>
    <trip id="74" depart="147.20" from="-516163750#1" to="-376666930#0" type="passenger"/>
    <trip id="75" depart="149.19" from="-516163750#1" to="376666916#0" type="passenger"/>
    <trip id="76" depart="151.18" from="-384030401#1" to="464445692#0" type="passenger"/>
    <trip id="77" depart="153.17" from="1206220504#0" to="-516163750#1" type="passenger"/>
    <trip id="78" depart="155.16" from="585352852#0-AddedOffRampEdge" to="767111811#2" type="passenger"/>
    <trip id="79" depart="157.15" from="376666931#2" to="219696191#1" type="passenger"/>
    <trip id="80" depart="159.13" from="-224260190#0" to="376666930#1" type="passenger"/>
    <trip id="81" depart="161.12" from="37402371" to="585341906#2" type="passenger"/>
    <trip id="82" depart="163.11" from="-376666916#1" to="1206220503#0" type="passenger"/>
    <trip id="83" depart="165.10" from="1206220504#1" to="-224260190#0" type="passenger"/>
    <trip id="84" depart="167.09" from="-778973690" to="219696191#0" type="passenger"/>
    <trip id="85" depart="169.08" from="-778973690" to="-376666916#0" type="passenger"/>
    <trip id="86" depart="171.07" from="-376666921" to="333554718" type="passenger"/>
    <trip id="87" depart="173.06" from="-516163750#0" to="464445692#0" type="passenger"/>
    <trip id="88" depart="175.05" from="516163750#1" to="767111811#1" type="passenger"/>
    <trip id="89" depart="177.04" from="331990404#0" to="464445691#3" type="passenger"/>
    <trip id="90" depart="179.03" from="516163750#1" to="-384030401#0" type="passenger"/>
    <trip id="91" depart="181.02" from="585352852#1" to="218962181" type="passenger"/>
    <trip id="92" depart="183.00" from="-384030401#1" to="-1339655669" type="passenger"/>
    <trip id="93" depart="184.99" from="464445691#1" to="-376666931#0" type="passenger"/>
    <trip id="94" depart="186.98" from="1206220504#0" to="-376666930#2" type="passenger"/>
    <trip id="95" depart="188.97" from="-224260190#3" to="376666930#0" type="passenger"/>
    <trip id="96" depart="190.96" from="218962181" to="585341906#0" type="passenger"/>
    <trip id="97" depart="192.95" from="516163750#1" to="-224260190#1" type="passenger"/>
    <trip id="98" depart="194.94" from="224260190#2" to="37402371" type="passenger"/>
    <trip id="99" depart="196.93" from="615671505#0" to="464445691#0" type="passenger"/>
    <trip id="100" depart="198.92" from="585352852#0" to="376666931#3" type="passenger"/>
    <trip id="101" depart="200.91" from="-224260190#3" to="767111811#1" type="passenger"/>
    <trip id="102" depart="202.90" from="516163750#1" to="376666931#4" type="passenger"/>
    <trip id="103" depart="204.89" from="224260190#1" to="-376666931#0" type="passenger"/>
    <trip id="104" depart="206.87" from="-376666930#2" to="-516163750#1" type="passenger"/>
    <trip id="105" depart="208.86" from="376666921" to="464445692#0" type="passenger"/>
    <trip id="106" depart="210.85" from="384030401#0" to="767111811#1" type="passenger"/>
    <trip id="107" depart="212.84" from="224260190#1" to="376666916#2" type="passenger"/>
    <trip id="108" depart="214.83" from="-1339655668" to="376666916#2" type="passenger"/>
    <trip id="109" depart="216.82" from="-384030401#0" to="585341907#2" type="passenger"/>
    <trip id="110" depart="218.81" from="-376666916#1" to="376666916#1" type="passenger"/>
    <trip id="111" depart="220.80" from="464445692#0" to="-376666931#4" type="passenger"/>
    <trip id="112" depart="222.79" from="-224260190#3" to="376666916#0" type="passenger"/>
    <trip id="113" depart="224.78" from="376666931#1" to="-376666931#3" type="passenger"/>
    <trip id="114" depart="226.77" from="516163750#0" to="224260190#0" type="passenger"/>
    <trip id="115" depart="228.76" from="-376666930#0" to="-224260190#2" type="passenger"/>
    <trip id="116" depart="230.74" from="-384030401#1" to="376666930#0" type="passenger"/>
    <trip id="117" depart="232.73" from="-376666916#2" to="-376666916#1" type="passenger"/>
    <trip id="118" depart="234.72" from="-464445691#3" to="-224260190#1" type="passenger"/>
    <trip id="119" depart="236.71" from="-384030401#2" to="-376666931#4" type="passenger"/>
    <trip id="120" depart="238.70" from="-224260190#1" to="-376666916#0" type="passenger"/>
    <trip id="121" depart="240.69" from="-376666916#0" to="-1339655668" type="passenger"/>
    <trip id="122" depart="242.68" from="-376666916#0" to="767111811#2" type="passenger"/>
    <trip id="123" depart="244.67" from="384030401#0" to="376666916#0" type="passenger"/>
    <trip id="124" depart="246.66" from="-376666930#2" to="1206220503#0" type="passenger"/>
    <trip id="125" depart="248.65" from="-384030401#1" to="376666930#0" type="passenger"/>
    <trip id="126" depart="250.64" from="-376666931#4" to="376666930#2" type="passenger"/>
    <trip id="127" depart="252.63" from="464445691#1" to="219696191#0" type="passenger"/>
    <trip id="128" depart="254.61" from="376666931#3" to="37402371" type="passenger"/>
    <trip id="129" depart="256.60" from="376666930#0" to="37402371" type="passenger"/>
    <trip id="130" depart="258.59" from="585352852#0" to="-376666931#0" type="passenger"/>
    <trip id="131" depart="260.58" from="913268036" to="-384030401#0" type="passenger"/>
    <trip id="132" depart="262.57" from="-384030401#1" to="-384030401#1" type="passenger"/>
    <trip id="133" depart="264.56" from="516163750#0" to="1206223946#1" type="passenger"/>
    <trip id="134" depart="266.55" from="-376666916#1" to="333554718" type="passenger"/>
    <trip id="135" depart="268.54" from="1206220503#1" to="376666916#0" type="passenger"/>
    <trip id="136" depart="270.53" from="331990404#1" to="376666931#3" type="passenger"/>
    <trip id="137" depart="272.52" from="464445692#0" to="-376666930#1" type="passenger"/>
    <trip id="138" depart="274.51" from="224260190#1" to="516163750#0" type="passenger"/>
    <trip id="139" depart="276.50" from="516163750#0" to="376666921" type="passenger"/>
    <trip id="140" depart="278.49" from="376666932#1" to="-376666930#0" type="passenger"/>
    <trip id="141" depart="280.47" from="-464445691#3" to="-376666930#0" type="passenger"/>
    <trip id="142" depart="282.46" from="-224260190#2" to="585341906#2" type="passenger"/>
    <trip id="143" depart="284.45" from="376666916#0" to="376666930#2" type="passenger"/>
    <trip id="144" depart="286.44" from="464445691#1" to="224260190#1" type="passenger"/>
    <trip id="145" depart="288.43" from="-384030401#1" to="384030401#2" type="passenger"/>
    <trip id="146" depart="290.42" from="-631259844" to="-224260190#0" type="passenger"/>
    <trip id="147" depart="292.41" from="224260190#2" to="464445691#0" type="passenger"/>
    <trip id="148" depart="294.40" from="-376666916#2" to="376666932#1" type="passenger"/>
    <trip id="149" depart="296.39" from="-464445691#3" to="376666931#3" type="passenger"/>
    <trip id="150" depart="298.38" from="615671505#0" to="1206220503#0" type="passenger"/>
    <trip id="151" depart="300.37" from="224260190#2" to="778973690" type="passenger"/>
    <trip id="152" depart="302.36" from="218962181" to="333554718" type="passenger"/>
    <trip id="153" depart="304.34" from="-376666916#1" to="516163750#0" type="passenger"/>
    <trip id="154" depart="306.33" from="-1339655668" to="-376666931#4" type="passenger"/>
    <trip id="155" depart="308.32" from="224260190#2" to="585341906#0" type="passenger"/>
    <trip id="156" depart="310.31" from="464445692#0" to="767111811#1" type="passenger"/>
    <trip id="157" depart="312.30" from="1206220503#1" to="631259843" type="passenger"/>
    <trip id="158" depart="314.29" from="384030401#0" to="376666931#3" type="passenger"/>
    <trip id="159" depart="316.28" from="1339655668" to="376666916#0" type="passenger"/>
    <trip id="160" depart="318.27" from="-1339655668" to="384030401#2" type="passenger"/>
    <trip id="161" depart="320.26" from="778973690" to="-376666930#0" type="passenger"/>
    <trip id="162" depart="322.25" from="331990404#1" to="464445692#0" type="passenger"/>
    <trip id="163" depart="324.24" from="-376666931#4" to="-376666930#0" type="passenger"/>
    <trip id="164" depart="326.23" from="1206220507#0" to="384030401#2" type="passenger"/>
    <trip id="165" depart="328.21" from="376666916#0" to="585341906#0" type="passenger"/>
    <trip id="166" depart="330.20" from="-224260190#1" to="224260190#1" type="passenger"/>
    <trip id="167" depart="332.19" from="376666916#0" to="37402371" type="passenger"/>
    <trip id="168" depart="334.18" from="-376666930#2" to="-224260190#2" type="passenger"/>
    <trip id="169" depart="336.17" from="-778973690" to="-376666932#1" type="passenger"/>
    <trip id="170" depart="338.16" from="376666931#0" to="-384030401#1" type="passenger"/>
    <trip id="171" depart="340.15" from="-224260190#2" to="-384030401#1" type="passenger"/>
    <trip id="172" depart="342.14" from="1206220503#0" to="224260190#1" type="passenger"/>
    <trip id="173" depart="344.13" from="-376666916#1" to="376666931#4" type="passenger"/>
    <trip id="174" depart="346.12" from="-384030401#1" to="-384030401#0" type="passenger"/>
    <trip id="175" depart="348.11" from="585352852#0" to="-376666930#0" type="passenger"/>
    <trip id="176" depart="350.10" from="585352852#0" to="333554718" type="passenger"/>
    <trip id="177" depart="352.08" from="218962181" to="1206220503#1" type="passenger"/>
    <trip id="178" depart="354.07" from="615671505#0" to="219696191#1" type="passenger"/>
    <trip id="179" depart="356.06" from="376666932#1" to="-376666916#0" type="passenger"/>
    <trip id="180" depart="358.05" from="516163750#1" to="464445691#1" type="passenger"/>
    <trip id="181" depart="360.04" from="1206220507#0" to="631259844" type="passenger"/>
    <trip id="182" depart="362.03" from="224260190#1" to="619147740" type="passenger"/>
    <trip id="183" depart="364.02" from="-376666932#1" to="-376666931#2" type="passenger"/>
    <trip id="184" depart="366.01" from="-1339655668" to="-778973690" type="passenger"/>
    <trip id="185" depart="368.00" from="1206220503#0" to="-376666931#0" type="passenger"/>
    <trip id="186" depart="369.99" from="-376666931#4" to="767111811#2" type="passenger"/>
    <trip id="187" depart="371.98" from="1206220504#0" to="376666916#1" type="passenger"/>
    <trip id="188" depart="373.97" from="384030401#0" to="1206223946#1" type="passenger"/>
    <trip id="189" depart="375.95" from="913268036" to="-376666931#0" type="passenger"/>
    <trip id="190" depart="377.94" from="-464445691#3" to="224260190#1" type="passenger"/>
    <trip id="191" depart="379.93" from="-464445691#1" to="585341906#0" type="passenger"/>
    <trip id="192" depart="381.92" from="-376666921" to="-376666931#4" type="passenger"/>
    <trip id="193" depart="383.91" from="585352852#1" to="585341907#0" type="passenger"/>
    <trip id="194" depart="385.90" from="913268036" to="631259844" type="passenger"/>
    <trip id="195" depart="387.89" from="1339655669" to="464445692#0" type="passenger"/>
    <trip id="196" depart="389.88" from="913268036" to="-1339655668" type="passenger"/>
    <trip id="197" depart="391.87" from="464445692#0" to="376666916#2" type="passenger"/>
    <trip id="198" depart="393.86" from="1339655669" to="224260190#2" type="passenger"/>
    <trip id="199" depart="395.85" from="-376666916#1" to="-376666931#1" type="passenger"/>
    <trip id="200" depart="397.84" from="-631259843" to="384030401#1" type="passenger"/>
    <trip id="201" depart="399.82" from="1206220504#0" to="384030401#0" type="passenger"/>
    <trip id="202" depart="401.81" from="376666931#1" to="585341907#2" type="passenger"/>
    <trip id="203" depart="403.80" from="384030401#1" to="631259843" type="passenger"/>
    <trip id="204" depart="405.79" from="384030401#0" to="-516163750#1" type="passenger"/>
    <trip id="205" depart="407.78" from="376666930#0" to="-384030401#0" type="passenger"/>
    <trip id="206" depart="409.77" from="-384030401#0" to="384030401#2" type="passenger"/>
    <trip id="207" depart="411.76" from="376666921" to="376666916#2" type="passenger"/>
    <trip id="208" depart="413.75" from="778973690" to="585341906#0" type="passenger"/>
    <trip id="209" depart="415.74" from="-376666916#1" to="464445691#3" type="passenger"/>
    <trip id="210" depart="417.73" from="464445691#1" to="1206220503#1" type="passenger"/>
    <trip id="211" depart="419.72" from="-384030401#0" to="464445692#0" type="passenger"/>
    <trip id="212" depart="421.71" from="-224260190#3" to="219696191#0" type="passenger"/>
    <trip id="213" depart="423.70" from="376666931#2" to="464445691#3" type="passenger"/>
    <trip id="214" depart="425.68" from="585352852#0" to="376666916#2" type="passenger"/>
    <trip id="215" depart="427.67" from="1206220504#1" to="464445691#1" type="passenger"/>
    <trip id="216" depart="429.66" from="-376666916#2" to="-376666931#4" type="passenger"/>
    <trip id="217" depart="431.65" from="224260190#1" to="631259844" type="passenger"/>
    <trip id="218" depart="433.64" from="-631259844" to="376666916#0" type="passenger"/>
    <trip id="219" depart="435.63" from="464445692#0" to="1206223946#1" type="passenger"/>
    <trip id="220" depart="437.62" from="-376666930#2" to="516163750#0" type="passenger"/>
    <trip id="221" depart="439.61" from="-376666916#1" to="-1339655668" type="passenger"/>
    <trip id="222" depart="441.60" from="516163750#0" to="-224260190#2" type="passenger"/>
    <trip id="223" depart="443.59" from="-224260190#0" to="384030401#2" type="passenger"/>
    <trip id="224" depart="445.58" from="-778973690" to="384030401#1" type="passenger"/>
    <trip id="225" depart="447.57" from="464445692#0" to="-516163750#1" type="passenger"/>
    <trip id="226" depart="449.55" from="516163750#1" to="-376666931#1" type="passenger"/>
    <trip id="227" depart="451.54" from="376666930#1" to="224260190#1" type="passenger"/>
    <trip id="228" depart="453.53" from="-224260190#3" to="-376666931#1" type="passenger"/>
    <trip id="229" depart="455.52" from="218962181" to="376666916#1" type="passenger"/>
    <trip id="230" depart="457.51" from="-376666931#4" to="-376666930#2" type="passenger"/>
    <trip id="231" depart="459.50" from="-778973690" to="-376666930#2" type="passenger"/>
    <trip id="232" depart="461.49" from="1206220507#0" to="-224260190#0" type="passenger"/>
    <trip id="233" depart="463.48" from="-631259843" to="1206220503#1" type="passenger"/>
    <trip id="234" depart="465.47" from="-464445691#1" to="-464445691#1" type="passenger"/>
    <trip id="235" depart="467.46" from="-384030401#1" to="-384030401#0" type="passenger"/>
    <trip id="236" depart="469.45" from="615671505#0" to="376666931#3" type="passenger"/>
    <trip id="237" depart="471.44" from="585352852#0-AddedOffRampEdge" to="1206220504#1" type="passenger"/>
    <trip id="238" depart="473.42" from="-651817398#2" to="-651817398#1" type="passenger"/>
    <trip id="239" depart="475.41" from="-376666932#1" to="-376666931#1" type="passenger"/>
    <trip id="240" depart="477.40" from="-376666921" to="585341906#0" type="passenger"/>
    <trip id="241" depart="479.39" from="376666930#2" to="585341907#0" type="passenger"/>
    <trip id="242" depart="481.38" from="-376666916#0" to="333554718" type="passenger"/>
    <trip id="243" depart="483.37" from="-376666921" to="376666916#2" type="passenger"/>
    <trip id="244" depart="485.36" from="1206220504#0" to="376666930#0" type="passenger"/>
    <trip id="245" depart="487.35" from="516163750#0" to="585341906#2" type="passenger"/>
    <trip id="246" depart="489.34" from="331990404#0" to="384030401#1" type="passenger"/>
    <trip id="247" depart="491.33" from="224260190#1" to="619147740" type="passenger"/>
    <trip id="248" depart="493.32" from="376666932#0" to="-376666931#1" type="passenger"/>
    <trip id="249" depart="495.31" from="376666931#0" to="1206220503#1" type="passenger"/>
    <trip id="250" depart="497.29" from="224260190#1" to="-224260190#1" type="passenger"/>
    <trip id="251" depart="499.28" from="376666931#3" to="-384030401#1" type="passenger"/>
    <trip id="252" depart="501.27" from="-384030401#0" to="-376666932#0" type="passenger"/>
    <trip id="253" depart="503.26" from="585352852#1" to="-376666930#1" type="passenger"/>
    <trip id="254" depart="505.25" from="224260190#1" to="585341906#2" type="passenger"/>
    <trip id="255" depart="507.24" from="-376666931#1" to="-376666931#1" type="passenger"/>
    <trip id="256" depart="509.23" from="1206220503#0" to="-376666931#4" type="passenger"/>
    <trip id="257" depart="511.22" from="331990404#1" to="384030401#0" type="passenger"/>
    <trip id="258" depart="513.21" from="-224260190#1" to="516163750#0" type="passenger"/>
    <trip id="259" depart="515.20" from="376666916#0" to="631259843" type="passenger"/>
    <trip id="260" depart="517.19" from="-376666931#4" to="-376666932#1" type="passenger"/>
    <trip id="261" depart="519.18" from="-224260190#3" to="-376666931#0" type="passenger"/>
    <trip id="262" depart="521.16" from="-376666932#1" to="631259843" type="passenger"/>
    <trip id="263" depart="523.15" from="585352852#0-AddedOffRampEdge" to="619147740" type="passenger"/>
    <trip id="264" depart="525.14" from="1206220503#0" to="-376666930#0" type="passenger"/>
    <trip id="265" depart="527.13" from="376666931#1" to="384030401#2" type="passenger"/>
    <trip id="266" depart="529.12" from="-631259843" to="631259844" type="passenger"/>
    <trip id="267" depart="531.11" from="-224260190#3" to="464445691#0" type="passenger"/>
    <trip id="268" depart="533.10" from="376666930#1" to="-376666916#0" type="passenger"/>
    <trip id="269" depart="535.09" from="-384030401#2" to="631259844" type="passenger"/>
    <trip id="270" depart="537.08" from="-778973690" to="384030401#2" type="passenger"/>
    <trip id="271" depart="539.07" from="516163750#1" to="-376666931#3" type="passenger"/>
    <trip id="272" depart="541.06" from="-224260190#2" to="1206220503#0" type="passenger"/>
    <trip id="273" depart="543.05" from="-224260190#3" to="-224260190#0" type="passenger"/>
    <trip id="274" depart="545.04" from="464445691#1" to="464445692#1" type="passenger"/>
    <trip id="275" depart="547.02" from="1339655669" to="464445692#0" type="passenger"/>
    <trip id="276" depart="549.01" from="-376666916#1" to="224260190#2" type="passenger"/>
    <trip id="277" depart="551.00" from="-376666930#2" to="-376666930#2" type="passenger"/>
    <trip id="278" depart="552.99" from="-376666930#0" to="-376666931#3" type="passenger"/>
    <trip id="279" depart="554.98" from="-224260190#0" to="-376666931#0" type="passenger"/>
    <trip id="280" depart="556.97" from="1206220504#0" to="631259843" type="passenger"/>
    <trip id="281" depart="558.96" from="-376666916#1" to="219696191#0" type="passenger"/>
    <trip id="282" depart="560.95" from="-224260190#1" to="464445692#1" type="passenger"/>
    <trip id="283" depart="562.94" from="1339655669" to="1206220503#0" type="passenger"/>
    <trip id="284" depart="564.93" from="-631259844" to="-1339655669" type="passenger"/>
    <trip id="285" depart="566.92" from="913268036" to="376666932#1" type="passenger"/>
    <trip id="286" depart="568.91" from="384030401#0" to="376666916#0" type="passenger"/>
    <trip id="287" depart="570.89" from="-224260190#3" to="219696191#0" type="passenger"/>
    <trip id="288" depart="572.88" from="376666930#0" to="333554718" type="passenger"/>
    <trip id="289" depart="574.87" from="376666931#1" to="-376666931#4" type="passenger"/>
    <trip id="290" depart="576.86" from="-376666921" to="-376666931#2" type="passenger"/>
    <trip id="291" depart="578.85" from="1339655668" to="631259843" type="passenger"/>
    <trip id="292" depart="580.84" from="-376666921" to="767111811#1" type="passenger"/>
    <trip id="293" depart="582.83" from="1206220507#0" to="-376666931#2" type="passenger"/>
    <trip id="294" depart="584.82" from="376666921" to="-376666931#2" type="passenger"/>
    <trip id="295" depart="586.81" from="585352852#1" to="376666932#1" type="passenger"/>
    <trip id="296" depart="588.80" from="376666930#2" to="-376666931#1" type="passenger"/>
    <trip id="297" depart="590.79" from="-376666931#1" to="-376666931#0" type="passenger"/>
    <trip id="298" depart="592.78" from="376666931#3" to="516163750#1" type="passenger"/>
    <trip id="299" depart="594.76" from="-516163750#1" to="619147740" type="passenger"/>
    <trip id="300" depart="596.75" from="615671505#0" to="-376666931#1" type="passenger"/>
    <trip id="301" depart="598.74" from="1339655669" to="376666932#1" type="passenger"/>
    <trip id="302" depart="600.73" from="-631259844" to="384030401#2" type="passenger"/>
    <trip id="303" depart="602.72" from="-376666916#1" to="376666931#4" type="passenger"/>
    <trip id="304" depart="604.71" from="-376666930#0" to="-376666931#4" type="passenger"/>
    <trip id="305" depart="606.70" from="-376666931#4" to="767111811#1" type="passenger"/>
    <trip id="306" depart="608.69" from="331990404#0" to="464445692#0" type="passenger"/>
    <trip id="307" depart="610.68" from="1206220504#1" to="-376666930#2" type="passenger"/>
    <trip id="308" depart="612.67" from="218962181" to="-516163750#1" type="passenger"/>
    <trip id="309" depart="614.66" from="1206220503#0" to="224260190#1" type="passenger"/>
    <trip id="310" depart="616.65" from="331990404#1" to="-376666932#1" type="passenger"/>
    <trip id="311" depart="618.63" from="376666930#1" to="376666931#4" type="passenger"/>
    <trip id="312" depart="620.62" from="585352852#0" to="376666930#1" type="passenger"/>
    <trip id="313" depart="622.61" from="331990404#1" to="224260190#3" type="passenger"/>
    <trip id="314" depart="624.60" from="224260190#0" to="1206220503#1" type="passenger"/>
    <trip id="315" depart="626.59" from="376666932#0" to="-376666921" type="passenger"/>
    <trip id="316" depart="628.58" from="218962181" to="-376666931#0" type="passenger"/>
    <trip id="317" depart="630.57" from="-376666916#1" to="585341907#2" type="passenger"/>
    <trip id="318" depart="632.56" from="224260190#0" to="631259844" type="passenger"/>
    <trip id="319" depart="634.55" from="1206220507#0" to="767111811#1" type="passenger"/>
    <trip id="320" depart="636.54" from="1206220503#0" to="-1339655669" type="passenger"/>
    <trip id="321" depart="638.53" from="-376666930#0" to="464445691#0" type="passenger"/>
    <trip id="322" depart="640.52" from="-376666916#1" to="631259843" type="passenger"/>