<?xml version="1.0" encoding="UTF-8"?>

<!-- generated on 2026-04-15 03:10:24.794270 by Eclipse SUMO randomTrips.py v1.26.0
<configuration>
    <net-file value="/Users/junlee/Desktop/2026-1/js/result/report_top12_seed4_2h/sumo_nets/cw_9494/network.net.xml"/>
    <output-trip-file value="/Users/junlee/Desktop/2026-1/js/result/report_top12_seed4_2h/sumo_nets/cw_9494/routes_seed44.trips.xml"/>
    <route-file value="/Users/junlee/Desktop/2026-1/js/result/report_top12_seed4_2h/sumo_nets/cw_9494/routes_seed44.rou.xml"/>
    <vehicle-class value="passenger"/>
    <seed value="44"/>
    <end value="7200.0"/>
    <period value="3.4437534880605183"/>
</configuration>
-->

<routes xmlns:xsi="http://www.w3.org/2001/XMLSchema-instance" xsi:noNamespaceSchemaLocation="http://sumo.dlr.de/xsd/routes_file.xsd">
    <vType id="passenger" vClass="passenger"/>
    <trip id="0" depart="0.00" from="-899499303#0" to="229028020#5" type="passenger"/>
    <trip id="1" depart="3.44" from="781992368#10" to="-381807683#2" type="passenger"/>
    <trip id="2" depart="6.89" from="-381807711#2" to="-117770552#0" type="passenger"/>
    <trip id="3" depart="10.33" from="-381802849#5" to="-117770538#0" type="passenger"/>
    <trip id="4" depart="13.78" from="899499304#1" to="381807711#0" type="passenger"/>
    <trip id="5" depart="17.22" from="381807707" to="-519060523#0" type="passenger"/>
    <trip id="6" depart="20.66" from="-229028020#5" to="781992367#1" type="passenger"/>
    <trip id="7" depart="24.11" from="381802855" to="-381802849#0" type="passenger"/>
    <trip id="8" depart="27.55" from="-229028020#4" to="-229028020#6" type="passenger"/>
    <trip id="9" depart="30.99" from="899499299" to="-229028020#9" type="passenger"/>
    <trip id="10" depart="34.44" from="381802865#0" to="899499303#0" type="passenger"/>
    <trip id="11" depart="37.88" from="-117770562#2" to="-871052107#0" type="passenger"/>
    <trip id="12" depart="41.33" from="-381807705" to="-420080604#2" type="passenger"/>
    <trip id="13" depart="44.77" from="-420086339#1" to="-117770562#3" type="passenger"/>
    <trip id="14" depart="48.21" from="381807702#1" to="519060523#0" type="passenger"/>
    <trip id="15" depart="51.66" from="117770535#0" to="-117770562#0" type="passenger"/>
    <trip id="16" depart="55.10" from="381807711#1" to="420086340#1" type="passenger"/>
    <trip id="17" depart="58.54" from="381807683#4" to="-519060523#1" type="passenger"/>
    <trip id="18" depart="61.99" from="381802849#3" to="229028020#5" type="passenger"/>
    <trip id="19" depart="65.43" from="-381807715#2" to="117770549#0" type="passenger"/>
    <trip id="20" depart="68.88" from="420093962#0" to="381807709#2" type="passenger"/>
    <trip id="21" depart="72.32" from="-781992371#0" to="519060523#1" type="passenger"/>
    <trip id="22" depart="75.76" from="519060523#2" to="-117770562#1" type="passenger"/>
    <trip id="23" depart="79.21" from="-117770549#1" to="420090510#1" type="passenger"/>
    <trip id="24" depart="82.65" from="381807683#2" to="229028020#5" type="passenger"/>
    <trip id="25" depart="86.09" from="-381807709#0" to="-381802849#0" type="passenger"/>
    <trip id="26" depart="89.54" from="-612506388#1" to="612506388#1" type="passenger"/>
    <trip id="27" depart="92.98" from="381802849#6" to="-218684411#2" type="passenger"/>
    <trip id="28" depart="96.43" from="117770535#0" to="-117770562#2" type="passenger"/>
    <trip id="29" depart="99.87" from="381802857" to="-381802849#2" type="passenger"/>
    <trip id="30" depart="103.31" from="-381807702#1" to="381807683#4" type="passenger"/>
    <trip id="31" depart="106.76" from="519060523#1" to="381802867" type="passenger"/>
    <trip id="32" depart="110.20" from="-420090510#5" to="381807683#4" type="passenger"/>
    <trip id="33" depart="113.64" from="-420086340#3" to="-117770538#0" type="passenger"/>
    <trip id="34" depart="117.09" from="-420090510#0" to="381807710#0" type="passenger"/>
    <trip id="35" depart="120.53" from="381802865#0" to="-381807702#1" type="passenger"/>
    <trip id="36" depart="123.98" from="519060523#2" to="519060523#3" type="passenger"/>
    <trip id="37" depart="127.42" from="-420090510#1" to="899499301#3" type="passenger"/>
    <trip id="38" depart="130.86" from="-420086340#1" to="-218684411#3" type="passenger"/>
    <trip id="39" depart="134.31" from="1199502738#0" to="781992368#3" type="passenger"/>
    <trip id="40" depart="137.75" from="381802849#5" to="229028020#6" type="passenger"/>
    <trip id="41" depart="141.19" from="-420093962#0" to="-899499301#3" type="passenger"/>
    <trip id="42" depart="144.64" from="-229028020#5" to="-420080604#0" type="passenger"/>
    <trip id="43" depart="148.08" from="896413216#1" to="381807702#1" type="passenger"/>
    <trip id="44" depart="151.53" from="-229028020#5" to="117770535#2" type="passenger"/>
    <trip id="45" depart="154.97" from="381807683#3" to="788411962#1" type="passenger"/>
    <trip id="46" depart="158.41" from="-229028020#7" to="782303556" type="passenger"/>
    <trip id="47" depart="161.86" from="420090510#0" to="-420086340#0" type="passenger"/>
    <trip id="48" depart="165.30" from="218684411#3" to="519060523#2" type="passenger"/>
    <trip id="49" depart="168.74" from="-420080604#2" to="381807711#2" type="passenger"/>
    <trip id="50" depart="172.19" from="229028020#5" to="-229028020#1" type="passenger"/>
    <trip id="51" depart="175.63" from="-420086340#3" to="-899499303#1" type="passenger"/>
    <trip id="52" depart="179.08" from="-420086339#2" to="-381807711#1" type="passenger"/>
    <trip id="53" depart="182.52" from="381802849#4" to="229028020#2" type="passenger"/>
    <trip id="54" depart="185.96" from="-519060523#0" to="-519060523#0" type="passenger"/>
    <trip id="55" depart="189.41" from="117770562#1" to="788411962#0" type="passenger"/>
    <trip id="56" depart="192.85" from="-229028020#6" to="788411962#1" type="passenger"/>
    <trip id="57" depart="196.29" from="896413216#0" to="381807709#2" type="passenger"/>
    <trip id="58" depart="199.74" from="519060520#1" to="-807006809" type="passenger"/>
    <trip id="59" depart="203.18" from="899499300" to="420086340#2" type="passenger"/>
    <trip id="60" depart="206.63" from="381807705" to="117770538#1" type="passenger"/>
    <trip id="61" depart="210.07" from="-381807711#1" to="381807711#0" type="passenger"/>
    <trip id="62" depart="213.51" from="420080604#1" to="-117770538#0" type="passenger"/>
    <trip id="63" depart="216.96" from="-519060520#0" to="229028020#4" type="passenger"/>
    <trip id="64" depart="220.40" from="-381807710#0" to="-381802849#4" type="passenger"/>
    <trip id="65" depart="223.84" from="-381807705" to="-117770539" type="passenger"/>
    <trip id="66" depart="227.29" from="-381802849#6" to="-899499299" type="passenger"/>
    <trip id="67" depart="230.73" from="117770562#2" to="381807683#3" type="passenger"/>
    <trip id="68" depart="234.18" from="-519060520#0" to="-381802849#3" type="passenger"/>
    <trip id="69" depart="237.62" from="381807703#1" to="381807710#0" type="passenger"/>
    <trip id="70" depart="241.06" from="-519060523#1" to="381802851#1" type="passenger"/>
    <trip id="71" depart="244.51" from="-519060523#0" to="381807688#2" type="passenger"/>
    <trip id="72" depart="247.95" from="519060522#2" to="-117770539" type="passenger"/>
    <trip id="73" depart="251.39" from="519060520#0" to="-381802849#1" type="passenger"/>
    <trip id="74" depart="254.84" from="-117770549#1" to="-229028020#2" type="passenger"/>
    <trip id="75" depart="258.28" from="229028020#5" to="781992368#11" type="passenger"/>
    <trip id="76" depart="261.73" from="807006785#0" to="-381802857" type="passenger"/>
    <trip id="77" depart="265.17" from="117770533" to="896413216#1" type="passenger"/>
    <trip id="78" depart="268.61" from="781992368#7" to="519060523#2" type="passenger"/>
    <trip id="79" depart="272.06" from="-420086339#1" to="-420086340#0" type="passenger"/>
    <trip id="80" depart="275.50" from="-381802867" to="-420086339#0" type="passenger"/>
    <trip id="81" depart="278.94" from="-899499301#3" to="519060522#1" type="passenger"/>
    <trip id="82" depart="282.39" from="381807688#0" to="-381807683#1" type="passenger"/>
    <trip id="83" depart="285.83" from="-381807702#1" to="117770538#1" type="passenger"/>
    <trip id="84" depart="289.28" from="781992368#8" to="117770558#0" type="passenger"/>
    <trip id="85" depart="292.72" from="420090510#5" to="381807710#0" type="passenger"/>
    <trip id="86" depart="296.16" from="781992368#3" to="117770562#3" type="passenger"/>
    <trip id="87" depart="299.61" from="519060520#1" to="-420086340#0" type="passenger"/>
    <trip id="88" depart="303.05" from="-381807707" to="612506388#1" type="passenger"/>
    <trip id="89" depart="306.49" from="117770558#0" to="381807683#3" type="passenger"/>
    <trip id="90" depart="309.94" from="-381807688#0" to="-117770562#1" type="passenger"/>
    <trip id="91" depart="313.38" from="-381807711#2" to="117770535#0" type="passenger"/>
    <trip id="92" depart="316.83" from="-117770562#2" to="-420086339#2" type="passenger"/>
    <trip id="93" depart="320.27" from="896413216#1" to="117770535#1" type="passenger"/>
    <trip id="94" depart="323.71" from="-117770538#1" to="519060522#2" type="passenger"/>
    <trip id="95" depart="327.16" from="-420093962#0" to="-381807683#2" type="passenger"/>
    <trip id="96" depart="330.60" from="381807683#0" to="381807705" type="passenger"/>
    <trip id="97" depart="334.04" from="-519060523#1" to="381807715#2" type="passenger"/>
    <trip id="98" depart="337.49" from="781992368#3" to="-519060523#3" type="passenger"/>
    <trip id="99" depart="340.93" from="117770562#1" to="-117770538#0" type="passenger"/>
    <trip id="100" depart="344.38" from="381802849#3" to="-420090510#1" type="passenger"/>
    <trip id="101" depart="347.82" from="381807683#4" to="420090510#3" type="passenger"/>
    <trip id="102" depart="351.26" from="-612506388#1" to="381807705" type="passenger"/>
    <trip id="103" depart="354.71" from="896413216#1" to="-381807683#1" type="passenger"/>
    <trip id="104" depart="358.15" from="519060520#0" to="117770558#1" type="passenger"/>
    <trip id="105" depart="361.59" from="896413216#1" to="-229028020#1" type="passenger"/>
    <trip id="106" depart="365.04" from="-420086340#1" to="781992371#0" type="passenger"/>
    <trip id="107" depart="368.48" from="218684411#2" to="-781992372" type="passenger"/>
    <trip id="108" depart="371.93" from="899499300" to="-117770562#3" type="passenger"/>
    <trip id="109" depart="375.37" from="-117770552#0" to="420090510#5" type="passenger"/>
    <trip id="110" depart="378.81" from="229028020#4" to="612506388#0" type="passenger"/>
    <trip id="111" depart="382.26" from="-519060523#3" to="-381807711#0" type="passenger"/>
    <trip id="112" depart="385.70" from="781992368#4" to="229028020#3" type="passenger"/>
    <trip id="113" depart="389.14" from="-117770549#1" to="420086339#2" type="passenger"/>
    <trip id="114" depart="392.59" from="381807683#1" to="-381802849#0" type="passenger"/>
    <trip id="115" depart="396.03" from="519060520#0" to="420093962#0" type="passenger"/>
    <trip id="116" depart="399.48" from="381802873" to="381802849#3" type="passenger"/>
    <trip id="117" depart="402.92" from="117770535#0" to="381807711#0" type="passenger"/>
    <trip id="118" depart="406.36" from="-871052107#0" to="807006809" type="passenger"/>
    <trip id="119" depart="409.81" from="381802849#3" to="381807709#0" type="passenger"/>
    <trip id="120" depart="413.25" from="218684411#3" to="-381802849#0" type="passenger"/>
    <trip id="121" depart="416.69" from="-381807709#2" to="-420080604#1" type="passenger"/>
    <trip id="122" depart="420.14" from="-420090510#0" to="-381807711#1" type="passenger"/>
    <trip id="123" depart="423.58" from="519060522#0" to="229028020#4" type="passenger"/>
    <trip id="124" depart="427.03" from="-229028020#8" to="218684411#2" type="passenger"/>
    <trip id="125" depart="430.47" from="381807709#0" to="-117770552#0" type="passenger"/>
    <trip id="126" depart="433.91" from="-381807707" to="-117770539" type="passenger"/>
    <trip id="127" depart="437.36" from="381807709#0" to="-899499301#0" type="passenger"/>
    <trip id="128" depart="440.80" from="-117770549#1" to="-381807715#2" type="passenger"/>
    <trip id="129" depart="444.24" from="-381807707" to="381802849#1" type="passenger"/>
    <trip id="130" depart="447.69" from="-908057245" to="-899499304#1" type="passenger"/>
    <trip id="131" depart="451.13" from="-519060523#2" to="-117770562#0" type="passenger"/>
    <trip id="132" depart="454.58" from="-519060523#2" to="381807683#2" type="passenger"/>
    <trip id="133" depart="458.02" from="218684411#4" to="381802849#5" type="passenger"/>
    <trip id="134" depart="461.46" from="420086340#1" to="420080604#1" type="passenger"/>
    <trip id="135" depart="464.91" from="381807688#0" to="899499301#3" type="passenger"/>
    <trip id="136" depart="468.35" from="-420093962#1" to="420086340#0" type="passenger"/>
    <trip id="137" depart="471.79" from="-420090510#4" to="381802851#2" type="passenger"/>
    <trip id="138" depart="475.24" from="781992371#1" to="117770549#0" type="passenger"/>
    <trip id="139" depart="478.68" from="381802851#2" to="899499305#0" type="passenger"/>
    <trip id="140" depart="482.13" from="-519060523#1" to="-420086340#0" type="passenger"/>
    <trip id="141" depart="485.57" from="-117770552#0" to="-229028020#4" type="passenger"/>
    <trip id="142" depart="489.01" from="420090510#3" to="-381807715#1" type="passenger"/>
    <trip id="143" depart="492.46" from="519060523#2" to="381807715#1" type="passenger"/>
    <trip id="144" depart="495.90" from="781992368#2" to="117770558#3" type="passenger"/>
    <trip id="145" depart="499.34" from="788411962#0" to="381802849#1" type="passenger"/>
    <trip id="146" depart="502.79" from="-381802857" to="788411962#0" type="passenger"/>
    <trip id="147" depart="506.23" from="229028020#3" to="-899499301#0" type="passenger"/>
    <trip id="148" depart="509.68" from="1199502738#2" to="-807006785#0" type="passenger"/>
    <trip id="149" depart="513.12" from="-229028020#6" to="-117770562#2" type="passenger"/>
    <trip id="150" depart="516.56" from="-229028020#7" to="782306024" type="passenger"/>
    <trip id="151" depart="520.01" from="-781992371#1" to="-117770549#1" type="passenger"/>
    <trip id="152" depart="523.45" from="-899499301#0" to="381807683#2" type="passenger"/>
    <trip id="153" depart="526.89" from="381807683#0" to="788411962#1" type="passenger"/>
    <trip id="154" depart="530.34" from="-781992371#1" to="899499300" type="passenger"/>
    <trip id="155" depart="533.78" from="-117770549#0" to="-381802857" type="passenger"/>
    <trip id="156" depart="537.23" from="229028020#2" to="-117770533" type="passenger"/>
    <trip id="157" depart="540.67" from="-871052107#0" to="381807683#3" type="passenger"/>
    <trip id="158" depart="544.11" from="-420086340#0" to="-381807688#0" type="passenger"/>
    <trip id="159" depart="547.56" from="381807683#2" to="117770549#1" type="passenger"/>
    <trip id="160" depart="551.00" from="899499304#1" to="899499300" type="passenger"/>
    <trip id="161" depart="554.44" from="-420093962#1" to="-117770552#1" type="passenger"/>
    <trip id="162" depart="557.89" from="-381807688#0" to="117770535#0" type="passenger"/>
    <trip id="163" depart="561.33" from="-899499304#1" to="117770535#0" type="passenger"/>
    <trip id="164" depart="564.78" from="-229028020#8" to="-420090510#3" type="passenger"/>
    <trip id="165" depart="568.22" from="-899499303#0" to="420090510#1" type="passenger"/>
    <trip id="166" depart="571.66" from="-381802849#4" to="381807683#2" type="passenger"/>
    <trip id="167" depart="575.11" from="381807703#1" to="-381807702#1" type="passenger"/>
    <trip id="168" depart="578.55" from="381807711#0" to="-788411962#1" type="passenger"/>
    <trip id="169" depart="581.99" from="519060523#0" to="-117770549#0" type="passenger"/>
    <trip id="170" depart="585.44" from="-519060521" to="218684411#3" type="passenger"/>
    <trip id="171" depart="588.88" from="-420090510#5" to="-899499299" type="passenger"/>
    <trip id="172" depart="592.33" from="381802849#0" to="-381807711#2" type="passenger"/>
    <trip id="173" depart="595.77" from="781992368#0" to="-420086340#2" type="passenger"/>
    <trip id="174" depart="599.21" from="381807707" to="899499301#0" type="passenger"/>
    <trip id="175" depart="602.66" from="-381802849#1" to="781992368#8" type="passenger"/>
    <trip id="176" depart="606.10" from="-381807688#0" to="117770549#0" type="passenger"/>
    <trip id="177" depart="609.54" from="-381802849#5" to="807006809" type="passenger"/>
    <trip id="178" depart="612.99" from="-519060520#0" to="218684411#3" type="passenger"/>
    <trip id="179" depart="616.43" from="899499301#3" to="-381802851#2" type="passenger"/>
    <trip id="180" depart="619.88" from="-229028020#6" to="381807711#0" type="passenger"/>
    <trip id="181" depart="623.32" from="-218684411#3" to="-381802849#3" type="passenger"/>
    <trip id="182" depart="626.76" from="-420086340#0" to="-117770538#1" type="passenger"/>
    <trip id="183" depart="630.21" from="-612506388#1" to="-218684411#1" type="passenger"/>
    <trip id="184" depart="633.65" from="807006785#2" to="218684411#2" type="passenger"/>
    <trip id="185" depart="637.09" from="-420080604#1" to="781992368#9" type="passenger"/>
    <trip id="186" depart="640.54" from="-117770562#2" to="-381802849#2" type="passenger"/>
    <trip id="187" depart="643.98" from="-788411962#1" to="519060523#2" type="passenger"/>
    <trip id="188" depart="647.43" from="807006785#2" to="899499302" type="passenger"/>
    <trip id="189" depart="650.87" from="-381807709#2" to="-807006785#0" type="passenger"/>
    <trip id="190" depart="654.31" from="781992367#1" to="519060522#4" type="passenger"/>
    <trip id="191" depart="657.76" from="896413216#0" to="-229028020#3" type="passenger"/>
    <trip id="192" depart="661.20" from="-117770562#3" to="-899499301#0" type="passenger"/>
    <trip id="193" depart="664.64" from="519060523#2" to="381807710#0" type="passenger"/>
    <trip id="194" depart="668.09" from="-899499304#0" to="381807709#2" type="passenger"/>
    <trip id="195" depart="671.53" from="117770535#2" to="612506388#0" type="passenger"/>
    <trip id="196" depart="674.98" from="-420090510#4" to="420090510#0" type="passenger"/>
    <trip id="197" depart="678.42" from="-519060521" to="-519060523#3" type="passenger"/>
    <trip id="198" depart="681.86" from="-420086340#2" to="-117770552#1" type="passenger"/>
    <trip id="199" depart="685.31" from="381807691" to="381807702#1" type="passenger"/>
    <trip id="200" depart="688.75" from="117770533" to="381802849#6" type="passenger"/>
    <trip id="201" depart="692.19" from="-871052107#0" to="420086340#3" type="passenger"/>
    <trip id="202" depart="695.64" from="519060522#0" to="781992367#1" type="passenger"/>
    <trip id="203" depart="699.08" from="381807702#1" to="-381807711#0" type="passenger"/>
    <trip id="204" depart="702.53" from="519060522#0" to="229028020#9" type="passenger"/>
    <trip id="205" depart="705.97" from="420086339#0" to="420086340#3" type="passenger"/>
    <trip id="206" depart="709.41" from="-381807709#2" to="-229028020#1" type="passenger"/>
    <trip id="207" depart="712.86" from="420090510#3" to="381807705" type="passenger"/>
    <trip id="208" depart="716.30" from="-117770549#1" to="-117770562#2" type="passenger"/>
    <trip id="209" depart="719.74" from="-899499304#1" to="381807688#2" type="passenger"/>
    <trip id="210" depart="723.19" from="-381802849#6" to="381807711#1" type="passenger"/>
    <trip id="211" depart="726.63" from="-781992371#0" to="381807688#0" type="passenger"/>
    <trip id="212" depart="730.08" from="-420090510#0" to="-381807711#1" type="passenger"/>
    <trip id="213" depart="733.52" from="-381802867" to="381807710#0" type="passenger"/>
    <trip id="214" depart="736.96" from="381802857" to="-218684411#4" type="passenger"/>
    <trip id="215" depart="740.41" from="-381802849#4" to="612506388#0" type="passenger"/>
    <trip id="216" depart="743.85" from="-420086340#1" to="807006809" type="passenger"/>
    <trip id="217" depart="747.29" from="899499302" to="519060522#4" type="passenger"/>
    <trip id="218" depart="750.74" from="-381802851#3" to="-229028020#8" type="passenger"/>
    <trip id="219" depart="754.18" from="519060522#4" to="-899499304#0" type="passenger"/>
    <trip id="220" depart="757.63" from="-117770562#2" to="-229028020#8" type="passenger"/>
    <trip id="221" depart="761.07" from="-420090510#3" to="-420080604#0" type="passenger"/>
    <trip id="222" depart="764.51" from="-117770562#3" to="420080604#2" type="passenger"/>
    <trip id="223" depart="767.96" from="-229028020#1" to="-420090510#0" type="passenger"/>
    <trip id="224" depart="771.40" from="381807709#1" to="420090510#0" type="passenger"/>
    <trip id="225" depart="774.84" from="420093962#0" to="-381807711#2" type="passenger"/>
    <trip id="226" depart="778.29" from="-381807683#4" to="381802867" type="passenger"/>
    <trip id="227" depart="781.73" from="519060521" to="420086340#1" type="passenger"/>
    <trip id="228" depart="785.18" from="420080604#2" to="-899499303#1" type="passenger"/>
    <trip id="229" depart="788.62" from="381807711#2" to="788411962#0" type="passenger"/>
    <trip id="230" depart="792.06" from="381802851#2" to="-381802851#1" type="passenger"/>
    <trip id="231" depart="795.51" from="519060522#3" to="-117770552#1" type="passenger"/>
    <trip id="232" depart="798.95" from="-117770549#0" to="-420090510#3" type="passenger"/>
    <trip id="233" depart="802.39" from="-788411962#1" to="899499303#0" type="passenger"/>
    <trip id="234" depart="805.84" from="420080604#1" to="117770535#1" type="passenger"/>
    <trip id="235" depart="809.28" from="229028020#8" to="-899499303#1" type="passenger"/>
    <trip id="236" depart="812.73" from="781992370" to="381802865#0" type="passenger"/>
    <trip id="237" depart="816.17" from="-782306024" to="896413216#0" type="passenger"/>
    <trip id="238" depart="819.61" from="519060522#1" to="-899499303#0" type="passenger"/>
    <trip id="239" depart="823.06" from="899499300" to="-218684411#1" type="passenger"/>
    <trip id="240" depart="826.50" from="781992368#3" to="117770549#0" type="passenger"/>
    <trip id="241" depart="829.94" from="-899499304#1" to="117770535#1" type="passenger"/>
    <trip id="242" depart="833.39" from="-420080604#1" to="381807709#2" type="passenger"/>
    <trip id="243" depart="836.83" from="381807711#2" to="381807707" type="passenger"/>
    <trip id="244" depart="840.28" from="117770562#0" to="-381802849#0" type="passenger"/>
    <trip id="245" depart="843.72" from="-381807709#2" to="-381802849#3" type="passenger"/>
    <trip id="246" depart="847.16" from="-381802857" to="218684411#3" type="passenger"/>
    <trip id="247" depart="850.61" from="420086339#2" to="381807711#1" type="passenger"/>
    <trip id="248" depart="854.05" from="899499301#3" to="899499305#0" type="passenger"/>
    <trip id="249" depart="857.49" from="381802857" to="781992368#11" type="passenger"/>
    <trip id="250" depart="860.94" from="782306024" to="218684411#2" type="passenger"/>
    <trip id="251" depart="864.38" from="420086340#0" to="519060522#3" type="passenger"/>
    <trip id="252" depart="867.83" from="-229028020#6" to="-218684411#2" type="passenger"/>
    <trip id="253" depart="871.27" from="381807711#0" to="381802855" type="passenger"/>
    <trip id="254" depart="874.71" from="519060522#2" to="899499305#1" type="passenger"/>
    <trip id="255" depart="878.16" from="117770558#0" to="-229028020#5" type="passenger"/>
    <trip id="256" depart="881.60" from="381807707" to="-229028020#2" type="passenger"/>
    <trip id="257" depart="885.04" from="519060520#0" to="519060522#4" type="passenger"/>
    <trip id="258" depart="888.49" from="-420090510#5" to="420086339#1" type="passenger"/>
    <trip id="259" depart="891.93" from="-381802849#3" to="-519060523#3" type="passenger"/>
    <trip id="260" depart="895.38" from="-899499300" to="781992370" type="passenger"/>
    <trip id="261" depart="898.82" from="519060522#3" to="-229028020#8" type="passenger"/>
    <trip id="262" depart="902.26" from="117770549#0" to="781992367#1" type="passenger"/>
    <trip id="263" depart="905.71" from="-381807707" to="381802851#1" type="passenger"/>
    <trip id="264" depart="909.15" from="-519060521" to="-218684411#4" type="passenger"/>
    <trip id="265" depart="912.59" from="-117770552#0" to="-899499303#1" type="passenger"/>
    <trip id="266" depart="916.04" from="-218684411#3" to="381807683#3" type="passenger"/>
    <trip id="267" depart="919.48" from="420086339#1" to="420086340#0" type="passenger"/>
    <trip id="268" depart="922.93" from="117770562#2" to="381802873" type="passenger"/>
    <trip id="269" depart="926.37" from="781992368#11" to="-519060520#0" type="passenger"/>
    <trip id="270" depart="929.81" from="381802849#5" to="-381807683#0" type="passenger"/>
    <trip id="271" depart="933.26" from="381807703#1" to="908057245" type="passenger"/>
    <trip id="272" depart="936.70" from="-519060523#3" to="381807710#0" type="passenger"/>
    <trip id="273" depart="940.14" from="-229028020#2" to="-420080604#0" type="passenger"/>
    <trip id="274" depart="943.59" from="-899499303#1" to="420090510#4" type="passenger"/>
    <trip id="275" depart="947.03" from="218684411#4" to="-229028020#3" type="passenger"/>
    <trip id="276" depart="950.48" from="381807683#1" to="-229028020#1" type="passenger"/>
    <trip id="277" depart="953.92" from="-519060523#3" to="899499301#0" type="passenger"/>
    <trip id="278" depart="957.36" from="1199502738#2" to="-117770538#0" type="passenger"/>
    <trip id="279" depart="960.81" from="-420080604#1" to="-420086339#2" type="passenger"/>
    <trip id="280" depart="964.25" from="-381807688#0" to="420090510#1" type="passenger"/>
    <trip id="281" depart="967.69" from="-420086340#3" to="381807707" type="passenger"/>
    <trip id="282" depart="971.14" from="229028020#3" to="781992368#4" type="passenger"/>
    <trip id="283" depart="974.58" from="-612506388#0" to="-117770533" type="passenger"/>
    <trip id="284" depart="978.03" from="-117770562#2" to="117770558#1" type="passenger"/>
    <trip id="285" depart="981.47" from="-381802867" to="908057245" type="passenger"/>
    <trip id="286" depart="984.91" from="229028020#5" to="519060522#3" type="passenger"/>
    <trip id="287" depart="988.36" from="381802873" to="381802855" type="passenger"/>
    <trip id="288" depart="991.80" from="781992367#1" to="-117770552#0" type="passenger"/>
    <trip id="289" depart="995.24" from="-781992371#0" to="381807702#1" type="passenger"/>
    <trip id="290" depart="998.69" from="-519060523#2" to="782303556" type="passenger"/>
    <trip id="291" depart="1002.13" from="-420090510#6" to="420080604#2" type="passenger"/>
    <trip id="292" depart="1005.58" from="218684411#3" to="218684411#4" type="passenger"/>
    <trip id="293" depart="1009.02" from="781992368#0" to="899499301#3" type="passenger"/>
    <trip id="294" depart="1012.46" from="218684411#3" to="-381802849#6" type="passenger"/>
    <trip id="295" depart="1015.91" from="420090510#3" to="381802857" type="passenger"/>
    <trip id="296" depart="1019.35" from="117770558#1" to="218684411#4" type="passenger"/>
    <trip id="297" depart="1022.79" from="-788411962#0" to="-381807703#1" type="passenger"/>
    <trip id="298" depart="1026.24" from="117770539" to="381807711#0" type="passenger"/>
    <trip id="299" depart="1029.68" from="-229028020#6" to="-420080604#0" type="passenger"/>
    <trip id="300" depart="1033.13" from="-420090510#5" to="420090510#5" type="passenger"/>
    <trip id="301" depart="1036.57" from="-899499301#0" to="-381807683#2" type="passenger"/>
    <trip id="302" depart="1040.01" from="-420090510#1" to="-117770552#0" type="passenger"/>
    <trip id="303" depart="1043.46" from="117770562#0" to="117770549#1" type="passenger"/>
    <trip id="304" depart="1046.90" from="-899499301#0" to="381807688#0" type="passenger"/>
    <trip id="305" depart="1050.34" from="381802849#3" to="-519060523#0" type="passenger"/>
    <trip id="306" depart="1053.79" from="381807707" to="-381802857" type="passenger"/>
    <trip id="307" depart="1057.23" from="381807688#2" to="-899499301#0" type="passenger"/>
    <trip id="308" depart="1060.68" from="420090510#0" to="781992367#1" type="passenger"/>
    <trip id="309" depart="1064.12" from="117770558#1" to="-229028020#7" type="passenger"/>
    <trip id="310" depart="1067.56" from="381807683#3" to="-117770538#0" type="passenger"/>
    <trip id="311" depart="1071.01" from="-229028020#4" to="-381807703#1" type="passenger"/>
    <trip id="312" depart="1074.45" from="420093962#0" to="-807006785#0" type="passenger"/>
    <trip id="313" depart="1077.89" from="381802849#4" to="-117770538#1" type="passenger"/>
    <trip id="314" depart="1081.34" from="807006809" to="117770535#1" type="passenger"/>
    <trip id="315" depart="1084.78" from="-229028020#6" to="229028020#9" type="passenger"/>
    <trip id="316" depart="1088.23" from="781992368#2" to="117770552#1" type="passenger"/>
    <trip id="317" depart="1091.67" from="381807683#2" to="-229028020#5" type="passenger"/>
    <trip id="318" depart="1095.11" from="-381807683#3" to="-519060523#0" type="passenger"/>
    <trip id="319" depart="1098.56" from="-117770562#3" to="381802865#0" type="passenger"/>
    <trip id="320" depart="1102.00" from="-117770538#1" to="117770552#0" type="passenger"/>
    <trip id="321" depart="1105.44" from="381807703#0" to="-381802851#2" type="passenger"/>
    <trip id="322" depart="1108.89" from="908057245" to="381802851#1" type="passenger"/>