<?xml version="1.0" encoding="UTF-8"?>

<!-- generated on 2026-04-17 02:58:12.290860 by Eclipse SUMO randomTrips.py v1.26.0
<configuration>
    <net-file value="/Users/junlee/Desktop/2026-1/js/result/tradeoff_pet_top12_seed12_60min_20260417_025716/sumo_nets/cw_71666/network.net.xml"/>
    <output-trip-file value="/Users/junlee/Desktop/2026-1/js/result/tradeoff_pet_top12_seed12_60min_20260417_025716/sumo_nets/cw_71666/routes_seed52.trips.xml"/>
    <route-file value="/Users/junlee/Desktop/2026-1/js/result/tradeoff_pet_top12_seed12_60min_20260417_025716/sumo_nets/cw_71666/routes_seed52.rou.xml"/>
    <vehicle-class value="passenger"/>
    <seed value="52"/>
    <period value="2.4271386637157075"/>
</configuration>
-->

<routes xmlns:xsi="http://www.w3.org/2001/XMLSchema-instance" xsi:noNamespaceSchemaLocation="http://sumo.dlr.de/xsd/routes_file.xsd">
    <vType id="passenger" vClass="passenger"/>
    <trip id="0" depart="0.00" from="913009312#8" to="-117914351#0" type="passenger"/>
    <trip id="1" depart="2.43" from="381452110" to="1126339777#0" type="passenger"/>
    <trip id="2" depart="4.85" from="913009312#3" to="-601902513#1" type="passenger"/>
    <trip id="3" depart="7.28" from="601902513#1" to="-381447836#0" type="passenger"/>
    <trip id="4" depart="9.71" from="913009315" to="-913009311" type="passenger"/>
    <trip id="5" depart="12.14" from="-381447836#2" to="-420331825#1" type="passenger"/>
    <trip id="6" depart="14.56" from="381447831" to="-117914348#0" type="passenger"/>
    <trip id="7" depart="16.99" from="-420331831" to="-1126339777#1" type="passenger"/>
    <trip id="8" depart="19.42" from="-117914351#2" to="-381447836#2" type="passenger"/>
    <trip id="9" depart="21.84" from="-381452132" to="-420317540" type="passenger"/>
    <trip id="10" depart="24.27" from="381452175#1" to="-913009311" type="passenger"/>
    <trip id="11" depart="26.70" from="420331825#1" to="420331831" type="passenger"/>
    <trip id="12" depart="29.13" from="420331831" to="913009312#3" type="passenger"/>
    <trip id="13" depart="31.55" from="218773868#3" to="381447835#1" type="passenger"/>
    <trip id="14" depart="33.98" from="420331825#4" to="117914351#0" type="passenger"/>
    <trip id="15" depart="36.41" from="-381447829#0" to="117914348#0" type="passenger"/>
    <trip id="16" depart="38.83" from="117914348#2" to="-381452104#0" type="passenger"/>
    <trip id="17" depart="41.26" from="-218773868#2" to="-381452104#0" type="passenger"/>
    <trip id="18" depart="43.69" from="381452104#0" to="420317543#1" type="passenger"/>
    <trip id="19" depart="46.12" from="381447835#0" to="-913009312#2" type="passenger"/>
    <trip id="20" depart="48.54" from="-117914343#2" to="-1126339777#0" type="passenger"/>
    <trip id="21" depart="50.97" from="381447835#0" to="117914348#1" type="passenger"/>
    <trip id="22" depart="53.40" from="-913009312#6" to="-381447836#2" type="passenger"/>
    <trip id="23" depart="55.82" from="-381447817#0" to="-381452104#0" type="passenger"/>
    <trip id="24" depart="58.25" from="-381447817#1" to="244215399" type="passenger"/>
    <trip id="25" depart="60.68" from="-420317544#1" to="117914351#2" type="passenger"/>
    <trip id="26" depart="63.11" from="-913009312#2" to="117914351#0" type="passenger"/>
    <trip id="27" depart="65.53" from="381452167" to="381452174#1" type="passenger"/>
    <trip id="28" depart="67.96" from="-381447833#0" to="913009312#4" type="passenger"/>
    <trip id="29" depart="70.39" from="420331825#0" to="420317544#1" type="passenger"/>
    <trip id="30" depart="72.81" from="-913009312#5" to="913009312#3" type="passenger"/>
    <trip id="31" depart="75.24" from="420319840#0" to="-381452174#0" type="passenger"/>
    <trip id="32" depart="77.67" from="381447836#2" to="420319848#2" type="passenger"/>
    <trip id="33" depart="80.10" from="381452172" to="420331831" type="passenger"/>
    <trip id="34" depart="82.52" from="117914348#2" to="381447835#1" type="passenger"/>
    <trip id="35" depart="84.95" from="-117914352#0" to="381447835#0" type="passenger"/>
    <trip id="36" depart="87.38" from="-381447833#0" to="381452104#2" type="passenger"/>
    <trip id="37" depart="89.80" from="520307306" to="-420331827" type="passenger"/>
    <trip id="38" depart="92.23" from="-117914351#2" to="-117914348#1" type="passenger"/>
    <trip id="39" depart="94.66" from="117914348#0" to="-381447834#0" type="passenger"/>
    <trip id="40" depart="97.09" from="381452132" to="381447817#0" type="passenger"/>
    <trip id="41" depart="99.51" from="117914343#1" to="381447835#1" type="passenger"/>
    <trip id="42" depart="101.94" from="-381447833#0" to="-913009312#7" type="passenger"/>
    <trip id="43" depart="104.37" from="-117914348#2" to="117914351#0" type="passenger"/>
    <trip id="44" depart="106.79" from="420317540" to="-381447834#0" type="passenger"/>
    <trip id="45" depart="109.22" from="-420319848#0" to="-381452110" type="passenger"/>
    <trip id="46" depart="111.65" from="-381452174#0" to="420319840#1" type="passenger"/>
    <trip id="47" depart="114.08" from="-218773868#0" to="381452174#1" type="passenger"/>
    <trip id="48" depart="116.50" from="-381452174#1" to="381452160" type="passenger"/>
    <trip id="49" depart="118.93" from="420331827" to="420319848#1" type="passenger"/>
    <trip id="50" depart="121.36" from="-381452104#0" to="117914351#0" type="passenger"/>
    <trip id="51" depart="123.78" from="-420319840#1" to="420331825#4" type="passenger"/>
    <trip id="52" depart="126.21" from="-420317543#1" to="-381447836#2" type="passenger"/>
    <trip id="53" depart="128.64" from="-601902513#0" to="-218773868#2" type="passenger"/>
    <trip id="54" depart="131.07" from="-381452108#1" to="381447836#3" type="passenger"/>
    <trip id="55" depart="133.49" from="-420319848#0" to="-381452104#0" type="passenger"/>
    <trip id="56" depart="135.92" from="913009312#2" to="-381452175#1" type="passenger"/>
    <trip id="57" depart="138.35" from="420317540" to="381447835#3" type="passenger"/>
    <trip id="58" depart="140.77" from="117914352#1" to="381447833#1" type="passenger"/>
    <trip id="59" depart="143.20" from="244215552#0" to="420319848#1" type="passenger"/>
    <trip id="60" depart="145.63" from="381447836#3" to="-381452175#2" type="passenger"/>
    <trip id="61" depart="148.06" from="381447835#0" to="117914343#1" type="passenger"/>
    <trip id="62" depart="150.48" from="913009311" to="-381447818" type="passenger"/>
    <trip id="63" depart="152.91" from="-913009312#5" to="913009312#5" type="passenger"/>
    <trip id="64" depart="155.34" from="-117914351#2" to="381452104#2" type="passenger"/>
    <trip id="65" depart="157.76" from="420331831" to="244215552#1" type="passenger"/>
    <trip id="66" depart="160.19" from="-117914348#3" to="381452174#1" type="passenger"/>
    <trip id="67" depart="162.62" from="-381452175#0" to="117914348#0" type="passenger"/>
    <trip id="68" depart="165.05" from="420319840#1" to="-420319844" type="passenger"/>
    <trip id="69" depart="167.47" from="-381452167" to="-381447818" type="passenger"/>
    <trip id="70" depart="169.90" from="-420331825#1" to="-381447817#0" type="passenger"/>
    <trip id="71" depart="172.33" from="381447836#3" to="420319840#1" type="passenger"/>
    <trip id="72" depart="174.75" from="-117914348#3" to="117914348#1" type="passenger"/>
    <trip id="73" depart="177.18" from="420317540" to="381452174#1" type="passenger"/>
    <trip id="74" depart="179.61" from="-381452175#0" to="117914348#2" type="passenger"/>
    <trip id="75" depart="182.04" from="381447836#0" to="117914348#0" type="passenger"/>
    <trip id="76" depart="184.46" from="913009315" to="520307306" type="passenger"/>
    <trip id="77" depart="186.89" from="913009312#6" to="-381447827" type="passenger"/>
    <trip id="78" depart="189.32" from="-117914343#1" to="218773868#4" type="passenger"/>
    <trip id="79" depart="191.74" from="218773868#3" to="-381452175#2" type="passenger"/>
    <trip id="80" depart="194.17" from="-381452160" to="381452175#0" type="passenger"/>
    <trip id="81" depart="196.60" from="420317543#0" to="-117914343#0" type="passenger"/>
    <trip id="82" depart="199.03" from="-381447817#0" to="381452104#1" type="passenger"/>
    <trip id="83" depart="201.45" from="-913009312#1" to="-381447834#0" type="passenger"/>
    <trip id="84" depart="203.88" from="913009312#4" to="-420319848#0" type="passenger"/>
    <trip id="85" depart="206.31" from="-117914352#0" to="-913009311" type="passenger"/>
    <trip id="86" depart="208.73" from="-601902513#0" to="381447833#1" type="passenger"/>
    <trip id="87" depart="211.16" from="381452174#1" to="-218773868#1" type="passenger"/>
    <trip id="88" depart="213.59" from="-913009312#8" to="420335669" type="passenger"/>
    <trip id="89" depart="216.02" from="1126339777#0" to="420331830" type="passenger"/>
    <trip id="90" depart="218.44" from="420331831" to="420317543#0" type="passenger"/>
    <trip id="91" depart="220.87" from="381447834#0" to="-381447817#1" type="passenger"/>
    <trip id="92" depart="223.30" from="913009312#9" to="-420319840#0" type="passenger"/>
    <trip id="93" depart="225.72" from="-420317544#1" to="117914343#1" type="passenger"/>
    <trip id="94" depart="228.15" from="117914351#0" to="381452174#0" type="passenger"/>
    <trip id="95" depart="230.58" from="117914351#2" to="601902513#1" type="passenger"/>
    <trip id="96" depart="233.01" from="381452175#2" to="381447833#1" type="passenger"/>
    <trip id="97" depart="235.43" from="-381452175#1" to="381447833#0" type="passenger"/>
    <trip id="98" depart="237.86" from="117914343#1" to="381452160" type="passenger"/>
    <trip id="99" depart="240.29" from="-381452175#1" to="381452175#1" type="passenger"/>
    <trip id="100" depart="242.71" from="381452106" to="-381447836#3" type="passenger"/>
    <trip id="101" depart="245.14" from="913009312#2" to="1126339777#0" type="passenger"/>
    <trip id="102" depart="247.57" from="-913009312#4" to="-420319848#1" type="passenger"/>
    <trip id="103" depart="250.00" from="-420331831" to="381452175#2" type="passenger"/>
    <trip id="104" depart="252.42" from="913009311" to="-913009312#8" type="passenger"/>
    <trip id="105" depart="254.85" from="117914348#2" to="-913009312#8" type="passenger"/>
    <trip id="106" depart="257.28" from="-381447817#0" to="420331830" type="passenger"/>
    <trip id="107" depart="259.70" from="-381452132" to="-420319840#0" type="passenger"/>
    <trip id="108" depart="262.13" from="381452175#2" to="-381447836#3" type="passenger"/>
    <trip id="109" depart="264.56" from="-381447833#1" to="420335669" type="passenger"/>
    <trip id="110" depart="266.99" from="-420317544#1" to="913009311" type="passenger"/>
    <trip id="111" depart="269.41" from="-1126339777#1" to="-218773868#2" type="passenger"/>
    <trip id="112" depart="271.84" from="-381452104#2" to="-520307306" type="passenger"/>
    <trip id="113" depart="274.27" from="117914351#0" to="-420319848#0" type="passenger"/>
    <trip id="114" depart="276.69" from="913009312#6" to="913009312#2" type="passenger"/>
    <trip id="115" depart="279.12" from="218773868#2" to="913009312#8" type="passenger"/>
    <trip id="116" depart="281.55" from="420331825#1" to="913009312#7" type="passenger"/>
    <trip id="117" depart="283.98" from="244215552#1" to="-381447817#1" type="passenger"/>
    <trip id="118" depart="286.40" from="218773868#2" to="-117914348#2" type="passenger"/>
    <trip id="119" depart="288.83" from="913009312#4" to="381452104#0" type="passenger"/>
    <trip id="120" depart="291.26" from="-420331831" to="117914343#2" type="passenger"/>
    <trip id="121" depart="293.68" from="-381447817#0" to="381452175#0" type="passenger"/>
    <trip id="122" depart="296.11" from="381447834#0" to="-420319847" type="passenger"/>
    <trip id="123" depart="298.54" from="-913009312#2" to="420319848#2" type="passenger"/>
    <trip id="124" depart="300.97" from="-117914348#2" to="-381452132" type="passenger"/>
    <trip id="125" depart="303.39" from="381447831" to="381452175#1" type="passenger"/>
    <trip id="126" depart="305.82" from="117914351#2" to="381447829#0" type="passenger"/>
    <trip id="127" depart="308.25" from="-1126339777#1" to="218773868#1" type="passenger"/>
    <trip id="128" depart="310.67" from="117914352#1" to="-218773868#0" type="passenger"/>
    <trip id="129" depart="313.10" from="117914348#2" to="-381452175#0" type="passenger"/>
    <trip id="130" depart="315.53" from="-420331825#1" to="381452175#1" type="passenger"/>
    <trip id="131" depart="317.96" from="420319848#0" to="-1126339777#1" type="passenger"/>
    <trip id="132" depart="320.38" from="-218773868#1" to="381447833#0" type="passenger"/>
    <trip id="133" depart="322.81" from="913009311" to="381447829#0" type="passenger"/>
    <trip id="134" depart="325.24" from="-420319848#2" to="381452122#3" type="passenger"/>
    <trip id="135" depart="327.66" from="601902513#0" to="-117914351#2" type="passenger"/>
    <trip id="136" depart="330.09" from="-117914348#0" to="-913009312#4" type="passenger"/>
    <trip id="137" depart="332.52" from="381452106" to="117914348#0" type="passenger"/>
    <trip id="138" depart="334.95" from="-381447834#1" to="-117914348#1" type="passenger"/>
    <trip id="139" depart="337.37" from="-913009312#7" to="-381452175#1" type="passenger"/>
    <trip id="140" depart="339.80" from="244215552#0" to="-913009312#8" type="passenger"/>
    <trip id="141" depart="342.23" from="-420319840#1" to="381452167" type="passenger"/>
    <trip id="142" depart="344.65" from="-420319848#2" to="-913009312#7" type="passenger"/>
    <trip id="143" depart="347.08" from="-913009312#6" to="381447836#2" type="passenger"/>
    <trip id="144" depart="349.51" from="913009312#9" to="381452108#1" type="passenger"/>
    <trip id="145" depart="351.94" from="-1126339777#0" to="381452132" type="passenger"/>
    <trip id="146" depart="354.36" from="117914348#1" to="381447833#0" type="passenger"/>
    <trip id="147" depart="356.79" from="-117914343#2" to="-117914343#0" type="passenger"/>
    <trip id="148" depart="359.22" from="-117914343#0" to="-381447818" type="passenger"/>
    <trip id="149" depart="361.64" from="-244215399" to="381452104#0" type="passenger"/>
    <trip id="150" depart="364.07" from="381452174#1" to="-601902513#1" type="passenger"/>
    <trip id="151" depart="366.50" from="-381452108#0" to="-913009312#4" type="passenger"/>
    <trip id="152" depart="368.93" from="-244215399" to="-381452174#1" type="passenger"/>
    <trip id="153" depart="371.35" from="-913009312#4" to="420331831" type="passenger"/>
    <trip id="154" depart="373.78" from="381452110" to="-381447818" type="passenger"/>
    <trip id="155" depart="376.21" from="420317543#0" to="913009312#7" type="passenger"/>
    <trip id="156" depart="378.63" from="420331830" to="-381447836#2" type="passenger"/>
    <trip id="157" depart="381.06" from="244215552#1" to="913009312#2" type="passenger"/>
    <trip id="158" depart="383.49" from="-381452174#0" to="218773868#1" type="passenger"/>
    <trip id="159" depart="385.92" from="381447831" to="913009312#4" type="passenger"/>
    <trip id="160" depart="388.34" from="420319844" to="-913009312#8" type="passenger"/>
    <trip id="161" depart="390.77" from="420319840#1" to="-381452174#0" type="passenger"/>
    <trip id="162" depart="393.20" from="381447835#1" to="-381447833#0" type="passenger"/>
    <trip id="163" depart="395.62" from="381452110" to="420317543#0" type="passenger"/>
    <trip id="164" depart="398.05" from="-218773868#4" to="-601902513#1" type="passenger"/>
    <trip id="165" depart="400.48" from="-381447834#0" to="117914348#1" type="passenger"/>
    <trip id="166" depart="402.91" from="-381452132" to="913009312#1" type="passenger"/>
    <trip id="167" depart="405.33" from="420319847" to="-117914351#2" type="passenger"/>
    <trip id="168" depart="407.76" from="-381452167" to="-381452175#2" type="passenger"/>
    <trip id="169" depart="410.19" from="-381447829#0" to="117914351#2" type="passenger"/>
    <trip id="170" depart="412.61" from="117914343#2" to="-381447836#2" type="passenger"/>
    <trip id="171" depart="415.04" from="-913009312#6" to="420319848#1" type="passenger"/>
    <trip id="172" depart="417.47" from="-117914352#0" to="-381452132" type="passenger"/>
    <trip id="173" depart="419.89" from="117914348#1" to="117914343#0" type="passenger"/>
    <trip id="174" depart="422.32" from="-381452104#0" to="381452132" type="passenger"/>
    <trip id="175" depart="424.75" from="913009312#9" to="1126339777#0" type="passenger"/>
    <trip id="176" depart="427.18" from="913009313#1" to="913009312#1" type="passenger"/>
    <trip id="177" depart="429.60" from="381452172" to="-420317544#0" type="passenger"/>
    <trip id="178" depart="432.03" from="117914352#1" to="913009312#1" type="passenger"/>
    <trip id="179" depart="434.46" from="420319848#1" to="-913009313#1" type="passenger"/>
    <trip id="180" depart="436.88" from="-381452167" to="-381452175#0" type="passenger"/>
    <trip id="181" depart="439.31" from="-420335669" to="381452175#1" type="passenger"/>
    <trip id="182" depart="441.74" from="-601902513#1" to="117914348#0" type="passenger"/>
    <trip id="183" depart="444.17" from="-381452104#0" to="-913009312#4" type="passenger"/>
    <trip id="184" depart="446.59" from="-381447833#1" to="-117914348#2" type="passenger"/>
    <trip id="185" depart="449.02" from="-381452104#2" to="117914348#3" type="passenger"/>
    <trip id="186" depart="451.45" from="381447835#0" to="381452132" type="passenger"/>
    <trip id="187" depart="453.87" from="913009311" to="-117914348#1" type="passenger"/>
    <trip id="188" depart="456.30" from="117914352#0" to="-381452167" type="passenger"/>
    <trip id="189" depart="458.73" from="913009312#5" to="-381447833#1" type="passenger"/>
    <trip id="190" depart="461.16" from="-420319848#0" to="-420331825#3" type="passenger"/>
    <trip id="191" depart="463.58" from="381452172" to="381447835#2" type="passenger"/>
    <trip id="192" depart="466.01" from="-117914348#2" to="-913009313#1" type="passenger"/>
    <trip id="193" depart="468.44" from="-420331825#1" to="-381447833#1" type="passenger"/>
    <trip id="194" depart="470.86" from="-117914343#2" to="-913009313#1" type="passenger"/>
    <trip id="195" depart="473.29" from="381447833#0" to="218773868#2" type="passenger"/>
    <trip id="196" depart="475.72" from="-420331827" to="-381447834#0" type="passenger"/>
    <trip id="197" depart="478.15" from="420319847" to="-420331830" type="passenger"/>
    <trip id="198" depart="480.57" from="-420317543#1" to="117914343#2" type="passenger"/>
    <trip id="199" depart="483.00" from="-218773868#1" to="1126339777#0" type="passenger"/>
    <trip id="200" depart="485.43" from="-244215399" to="-420319848#0" type="passenger"/>
    <trip id="201" depart="487.85" from="381447833#0" to="381452108#0" type="passenger"/>
    <trip id="202" depart="490.28" from="913009312#8" to="381447835#3" type="passenger"/>
    <trip id="203" depart="492.71" from="-218773868#2" to="381447818" type="passenger"/>
    <trip id="204" depart="495.14" from="-381452175#1" to="-381452167" type="passenger"/>
    <trip id="205" depart="497.56" from="381447835#1" to="-420319848#1" type="passenger"/>
    <trip id="206" depart="499.99" from="420331827" to="117914348#0" type="passenger"/>
    <trip id="207" depart="502.42" from="-381447834#0" to="-381447829#0" type="passenger"/>
    <trip id="208" depart="504.84" from="-117914348#2" to="913009311" type="passenger"/>
    <trip id="209" depart="507.27" from="913009311" to="-913009312#7" type="passenger"/>
    <trip id="210" depart="509.70" from="601902513#1" to="381452108#0" type="passenger"/>
    <trip id="211" depart="512.13" from="381452110" to="381447834#0" type="passenger"/>
    <trip id="212" depart="514.55" from="381452132" to="-218773868#0" type="passenger"/>
    <trip id="213" depart="516.98" from="381447833#1" to="-913009312#7" type="passenger"/>
    <trip id="214" depart="519.41" from="-420335669" to="-381452106" type="passenger"/>
    <trip id="215" depart="521.83" from="381447833#1" to="381452174#1" type="passenger"/>
    <trip id="216" depart="524.26" from="381447835#2" to="-117914351#0" type="passenger"/>
    <trip id="217" depart="526.69" from="-117914348#2" to="381447834#0" type="passenger"/>
    <trip id="218" depart="529.12" from="381447835#0" to="-218773868#2" type="passenger"/>
    <trip id="219" depart="531.54" from="-117914348#1" to="420331825#4" type="passenger"/>
    <trip id="220" depart="533.97" from="913009313#1" to="420331825#4" type="passenger"/>
    <trip id="221" depart="536.40" from="381447827" to="-117914352#0" type="passenger"/>
    <trip id="222" depart="538.82" from="-420319840#0" to="-420317544#0" type="passenger"/>
    <trip id="223" depart="541.25" from="-913009312#3" to="601902513#0" type="passenger"/>
    <trip id="224" depart="543.68" from="913009312#1" to="-381447836#2" type="passenger"/>
    <trip id="225" depart="546.11" from="117914351#2" to="420331825#4" type="passenger"/>
    <trip id="226" depart="548.53" from="913009315" to="117914348#2" type="passenger"/>
    <trip id="227" depart="550.96" from="-381452104#0" to="381447836#2" type="passenger"/>
    <trip id="228" depart="553.39" from="-218773868#2" to="381452160" type="passenger"/>
    <trip id="229" depart="555.81" from="420331825#1" to="420331825#3" type="passenger"/>
    <trip id="230" depart="558.24" from="381452172" to="-381452106" type="passenger"/>
    <trip id="231" depart="560.67" from="117914348#1" to="-381452172" type="passenger"/>
    <trip id="232" depart="563.10" from="-117914348#1" to="420317543#1" type="passenger"/>
    <trip id="233" depart="565.52" from="-117914351#2" to="244215399" type="passenger"/>
    <trip id="234" depart="567.95" from="-420319840#0" to="244215552#1" type="passenger"/>
    <trip id="235" depart="570.38" from="-420331825#1" to="381447833#0" type="passenger"/>
    <trip id="236" depart="572.80" from="913009312#2" to="-381447827" type="passenger"/>
    <trip id="237" depart="575.23" from="381447836#2" to="117914343#1" type="passenger"/>
    <trip id="238" depart="577.66" from="601902513#1" to="-420319844" type="passenger"/>
    <trip id="239" depart="580.09" from="913009312#3" to="218773868#4" type="passenger"/>
    <trip id="240" depart="582.51" from="-117914343#1" to="-381447834#0" type="passenger"/>
    <trip id="241" depart="584.94" from="117914348#1" to="218773868#4" type="passenger"/>
    <trip id="242" depart="587.37" from="601902513#0" to="117914343#0" type="passenger"/>
    <trip id="243" depart="589.79" from="420331825#1" to="218773868#1" type="passenger"/>
    <trip id="244" depart="592.22" from="381447829#0" to="-381452122#3" type="passenger"/>
    <trip id="245" depart="594.65" from="-601902513#1" to="-381447827" type="passenger"/>
    <trip id="246" depart="597.08" from="420319848#0" to="913009311" type="passenger"/>
    <trip id="247" depart="599.50" from="913009312#9" to="117914343#2" type="passenger"/>
    <trip id="248" depart="601.93" from="-381452174#0" to="381447835#1" type="passenger"/>
    <trip id="249" depart="604.36" from="381447827" to="913009312#7" type="passenger"/>
    <trip id="250" depart="606.78" from="-420331827" to="420331825#2" type="passenger"/>
    <trip id="251" depart="609.21" from="-913009312#6" to="117914352#0" type="passenger"/>
    <trip id="252" depart="611.64" from="381452122#3" to="117914343#0" type="passenger"/>
    <trip id="253" depart="614.07" from="-117914343#2" to="-381452104#0" type="passenger"/>
    <trip id="254" depart="616.49" from="381447835#3" to="381447835#1" type="passenger"/>
    <trip id="255" depart="618.92" from="-420331825#4" to="-420331825#4" type="passenger"/>
    <trip id="256" depart="621.35" from="420317543#1" to="-420317540" type="passenger"/>
    <trip id="257" depart="623.77" from="-381447833#1" to="-381452104#1" type="passenger"/>
    <trip id="258" depart="626.20" from="218773868#3" to="-913009312#8" type="passenger"/>
    <trip id="259" depart="628.63" from="-913009312#3" to="913009312#9" type="passenger"/>
    <trip id="260" depart="631.06" from="-117914343#2" to="381452122#3" type="passenger"/>
    <trip id="261" depart="633.48" from="-420317544#0" to="-420331825#2" type="passenger"/>
    <trip id="262" depart="635.91" from="-381452132" to="-420317544#0" type="passenger"/>
    <trip id="263" depart="638.34" from="-117914348#0" to="-381447817#0" type="passenger"/>
    <trip id="264" depart="640.76" from="-913009312#3" to="913009312#4" type="passenger"/>
    <trip id="265" depart="643.19" from="-117914351#0" to="381447834#0" type="passenger"/>
    <trip id="266" depart="645.62" from="-381452175#1" to="-601902513#0" type="passenger"/>
    <trip id="267" depart="648.05" from="-381452122#3" to="244215399" type="passenger"/>
    <trip id="268" depart="650.47" from="-420317544#0" to="-420319840#0" type="passenger"/>
    <trip id="269" depart="652.90" from="-381447829#0" to="-913009312#8" type="passenger"/>
    <trip id="270" depart="655.33" from="381452174#0" to="-381452172" type="passenger"/>
    <trip id="271" depart="657.75" from="218773868#2" to="-381452174#0" type="passenger"/>
    <trip id="272" depart="660.18" from="-913009312#5" to="-381452175#1" type="passenger"/>
    <trip id="273" depart="662.61" from="381452175#2" to="-381447817#1" type="passenger"/>
    <trip id="274" depart="665.04" from="381452175#1" to="-117914348#1" type="passenger"/>
    <trip id="275" depart="667.46" from="381447835#2" to="-420317543#0" type="passenger"/>
    <trip id="276" depart="669.89" from="-420331830" to="381447829#0" type="passenger"/>
    <trip id="277" depart="672.32" from="381447833#0" to="381447834#1" type="passenger"/>
    <trip id="278" depart="674.74" from="-381452108#1" to="117914343#2" type="passenger"/>
    <trip id="279" depart="677.17" from="420331825#1" to="-913009313#1" type="passenger"/>
    <trip id="280" depart="679.60" from="420319848#0" to="381452175#2" type="passenger"/>
    <trip id="281" depart="682.03" from="-218773868#2" to="117914348#2" type="passenger"/>
    <trip id="282" depart="684.45" from="-420331830" to="381452104#0" type="passenger"/>
    <trip id="283" depart="686.88" from="-117914348#1" to="381452104#0" type="passenger"/>
    <trip id="284" depart="689.31" from="913009312#5" to="420331825#2" type="passenger"/>
    <trip id="285" depart="691.73" from="913009312#8" to="-381447833#0" type="passenger"/>
    <trip id="286" depart="694.16" from="-601902513#0" to="-420319848#0" type="passenger"/>
    <trip id="287" depart="696.59" from="381452104#0" to="-381447818" type="passenger"/>
    <trip id="288" depart="699.02" from="913009312#9" to="-913009311" type="passenger"/>
    <trip id="289" depart="701.44" from="-420317543#0" to="381447834#0" type="passenger"/>
    <trip id="290" depart="703.87" from="381447831" to="420317543#0" type="passenger"/>
    <trip id="291" depart="706.30" from="-420317544#1" to="381447818" type="passenger"/>
    <trip id="292" depart="708.72" from="-913009312#3" to="-601902513#0" type="passenger"/>
    <trip id="293" depart="711.15" from="381447818" to="601902513#1" type="passenger"/>
    <trip id="294" depart="713.58" from="-117914343#2" to="913009312#3" type="passenger"/>
    <trip id="295" depart="716.01" from="-381452175#1" to="1126339777#1" type="passenger"/>
    <trip id="296" depart="718.43" from="381447818" to="218773868#4" type="passenger"/>
    <trip id="297" depart="720.86" from="420331825#0" to="-381452174#1" type="passenger"/>
    <trip id="298" depart="723.29" from="1126339777#1" to="381447834#0" type="passenger"/>
    <trip id="299" depart="725.71" from="-381447833#1" to="-601902513#0" type="passenger"/>
    <trip id="300" depart="728.14" from="381447835#2" to="-117914348#0" type="passenger"/>
    <trip id="301" depart="730.57" from="-218773868#1" to="-420331825#0" type="passenger"/>
    <trip id="302" depart="733.00" from="218773868#1" to="-913009312#4" type="passenger"/>
    <trip id="303" depart="735.42" from="381447835#0" to="117914343#2" type="passenger"/>
    <trip id="304" depart="737.85" from="381447835#0" to="420335669" type="passenger"/>
    <trip id="305" depart="740.28" from="381452175#0" to="-381447833#1" type="passenger"/>
    <trip id="306" depart="742.70" from="-381447829#0" to="-913009312#6" type="passenger"/>
    <trip id="307" depart="745.13" from="-381447834#1" to="-913009311" type="passenger"/>
    <trip id="308" depart="747.56" from="-218773868#3" to="-913009312#6" type="passenger"/>
    <trip id="309" depart="749.99" from="-381452174#0" to="-913009311" type="passenger"/>
    <trip id="310" depart="752.41" from="420319847" to="913009311" type="passenger"/>
    <trip id="311" depart="754.84" from="-218773868#2" to="218773868#4" type="passenger"/>
    <trip id="312" depart="757.27" from="420317543#1" to="-381452174#1" type="passenger"/>
    <trip id="313" depart="759.69" from="420331831" to="-420331825#3" type="passenger"/>
    <trip id="314" depart="762.12" from="913009312#8" to="-420331825#4" type="passenger"/>
    <trip id="315" depart="764.55" from="244215552#1" to="381447835#2" type="passenger"/>
    <trip id="316" depart="766.98" from="-420335669" to="420319848#2" type="passenger"/>
    <trip id="317" depart="769.40" from="-381447817#1" to="381452132" type="passenger"/>
    <trip id="318" depart="771.83" from="381452175#2" to="601902513#1" type="passenger"/>
    <trip id="319" depart="774.26" from="381447817#0" to="420317543#0" type="passenger"/>
    <trip id="320" depart="776.68" from="-381447836#0" to="381452175#0" type="passenger"/>
    <trip id="321" depart="779.11" from="-218773868#3" to="913009311" type="passenger"/>
    <trip id="322" depart="781.54" from="913009312#4" to="-117914343#2" type="passenger"/>
    <trip id="323" depart="783.97" from="913009311" to="381447834#0" type="passenger"/>