<?xml version="1.0" encoding="UTF-8"?>

<!-- generated on 2026-04-17 02:58:10.722711 by Eclipse SUMO randomTrips.py v1.26.0
<configuration>
    <net-file value="/Users/junlee/Desktop/2026-1/js/result/tradeoff_pet_top12_seed12_60min_20260417_025716/sumo_nets/cw_71666/network.net.xml"/>
    <output-trip-file value="/Users/junlee/Desktop/2026-1/js/result/tradeoff_pet_top12_seed12_60min_20260417_025716/sumo_nets/cw_71666/routes_seed50.trips.xml"/>
    <route-file value="/Users/junlee/Desktop/2026-1/js/result/tradeoff_pet_top12_seed12_60min_20260417_025716/sumo_nets/cw_71666/routes_seed50.rou.xml"/>
    <vehicle-class value="passenger"/>
    <seed value="50"/>
    <period value="2.520694218020634"/>
</configuration>
-->

<routes xmlns:xsi="http://www.w3.org/2001/XMLSchema-instance" xsi:noNamespaceSchemaLocation="http://sumo.dlr.de/xsd/routes_file.xsd">
    <vType id="passenger" vClass="passenger"/>
    <trip id="0" depart="0.00" from="117914343#0" to="-381452175#2" type="passenger"/>
    <trip id="1" depart="2.52" from="381447833#0" to="-381452174#0" type="passenger"/>
    <trip id="2" depart="5.04" from="-913009312#8" to="913009312#6" type="passenger"/>
    <trip id="3" depart="7.56" from="-218773868#0" to="-420319844" type="passenger"/>
    <trip id="4" depart="10.08" from="381447835#3" to="-218773868#1" type="passenger"/>
    <trip id="5" depart="12.60" from="-381447833#1" to="420319840#0" type="passenger"/>
    <trip id="6" depart="15.12" from="913009312#8" to="-420319847" type="passenger"/>
    <trip id="7" depart="17.64" from="-381447836#3" to="913009312#6" type="passenger"/>
    <trip id="8" depart="20.17" from="-420319848#0" to="244215552#1" type="passenger"/>
    <trip id="9" depart="22.69" from="381447818" to="381447829#0" type="passenger"/>
    <trip id="10" depart="25.21" from="601902513#1" to="913009312#5" type="passenger"/>
    <trip id="11" depart="27.73" from="381447836#3" to="420319840#0" type="passenger"/>
    <trip id="12" depart="30.25" from="420317540" to="381447833#1" type="passenger"/>
    <trip id="13" depart="32.77" from="-913009312#2" to="-381452167" type="passenger"/>
    <trip id="14" depart="35.29" from="-381452175#0" to="913009311" type="passenger"/>
    <trip id="15" depart="37.81" from="381452104#0" to="-381447817#0" type="passenger"/>
    <trip id="16" depart="40.33" from="601902513#0" to="-381452175#2" type="passenger"/>
    <trip id="17" depart="42.85" from="381447836#3" to="-913009312#7" type="passenger"/>
    <trip id="18" depart="45.37" from="-381452175#0" to="-381452110" type="passenger"/>
    <trip id="19" depart="47.89" from="244215552#0" to="-913009311" type="passenger"/>
    <trip id="20" depart="50.41" from="381447829#0" to="381447836#2" type="passenger"/>
    <trip id="21" depart="52.93" from="420319840#1" to="420319848#2" type="passenger"/>
    <trip id="22" depart="55.46" from="381447831" to="913009312#5" type="passenger"/>
    <trip id="23" depart="57.98" from="117914343#0" to="420331830" type="passenger"/>
    <trip id="24" depart="60.50" from="420319840#0" to="420317544#1" type="passenger"/>
    <trip id="25" depart="63.02" from="-381447817#1" to="218773868#1" type="passenger"/>
    <trip id="26" depart="65.54" from="117914348#0" to="-218773868#3" type="passenger"/>
    <trip id="27" depart="68.06" from="-420331825#4" to="117914348#0" type="passenger"/>
    <trip id="28" depart="70.58" from="-1126339777#1" to="-1126339777#1" type="passenger"/>
    <trip id="29" depart="73.10" from="244215552#1" to="-913009311" type="passenger"/>
    <trip id="30" depart="75.62" from="913009312#8" to="420319848#2" type="passenger"/>
    <trip id="31" depart="78.14" from="420319844" to="420317543#0" type="passenger"/>
    <trip id="32" depart="80.66" from="-381452122#3" to="381452104#2" type="passenger"/>
    <trip id="33" depart="83.18" from="-218773868#2" to="-381447831" type="passenger"/>
    <trip id="34" depart="85.70" from="-420331830" to="-381452174#1" type="passenger"/>
    <trip id="35" depart="88.22" from="-117914348#0" to="117914348#0" type="passenger"/>
    <trip id="36" depart="90.74" from="913009312#6" to="-218773868#0" type="passenger"/>
    <trip id="37" depart="93.27" from="-381452160" to="601902513#1" type="passenger"/>
    <trip id="38" depart="95.79" from="117914348#2" to="-913009312#8" type="passenger"/>
    <trip id="39" depart="98.31" from="-913009312#8" to="-601902513#0" type="passenger"/>
    <trip id="40" depart="100.83" from="-420331825#4" to="381452174#1" type="passenger"/>
    <trip id="41" depart="103.35" from="-117914343#0" to="-913009312#4" type="passenger"/>
    <trip id="42" depart="105.87" from="381447833#1" to="-1126339777#1" type="passenger"/>
    <trip id="43" depart="108.39" from="-420319840#1" to="-420331825#1" type="passenger"/>
    <trip id="44" depart="110.91" from="381447834#0" to="117914348#0" type="passenger"/>
    <trip id="45" depart="113.43" from="117914343#0" to="-420319840#0" type="passenger"/>
    <trip id="46" depart="115.95" from="-913009312#2" to="601902513#1" type="passenger"/>
    <trip id="47" depart="118.47" from="-244215399" to="-218773868#2" type="passenger"/>
    <trip id="48" depart="120.99" from="-381447834#0" to="-117914348#2" type="passenger"/>
    <trip id="49" depart="123.51" from="-381447829#0" to="-420319840#1" type="passenger"/>
    <trip id="50" depart="126.03" from="381452132" to="913009312#4" type="passenger"/>
    <trip id="51" depart="128.56" from="-117914343#0" to="117914343#0" type="passenger"/>
    <trip id="52" depart="131.08" from="-381452160" to="420331831" type="passenger"/>
    <trip id="53" depart="133.60" from="913009315" to="381447836#2" type="passenger"/>
    <trip id="54" depart="136.12" from="-117914343#2" to="1126339777#1" type="passenger"/>
    <trip id="55" depart="138.64" from="-913009312#2" to="117914348#3" type="passenger"/>
    <trip id="56" depart="141.16" from="-381452108#1" to="-117914343#2" type="passenger"/>
    <trip id="57" depart="143.68" from="381447817#1" to="420319840#0" type="passenger"/>
    <trip id="58" depart="146.20" from="-420319848#1" to="-420331830" type="passenger"/>
    <trip id="59" depart="148.72" from="-117914348#1" to="117914348#2" type="passenger"/>
    <trip id="60" depart="151.24" from="420319840#1" to="-913009315" type="passenger"/>
    <trip id="61" depart="153.76" from="-381447817#1" to="-381447818" type="passenger"/>
    <trip id="62" depart="156.28" from="420331825#0" to="381452104#0" type="passenger"/>
    <trip id="63" depart="158.80" from="-381452174#0" to="117914343#2" type="passenger"/>
    <trip id="64" depart="161.32" from="-381447817#0" to="117914352#0" type="passenger"/>
    <trip id="65" depart="163.85" from="-117914343#2" to="-420319840#0" type="passenger"/>
    <trip id="66" depart="166.37" from="1126339777#0" to="-913009312#8" type="passenger"/>
    <trip id="67" depart="168.89" from="-420317543#1" to="381447835#0" type="passenger"/>
    <trip id="68" depart="171.41" from="-381452167" to="381452175#0" type="passenger"/>
    <trip id="69" depart="173.93" from="420319847" to="218773868#1" type="passenger"/>
    <trip id="70" depart="176.45" from="913009312#5" to="-381452174#1" type="passenger"/>
    <trip id="71" depart="178.97" from="913009312#8" to="-117914348#2" type="passenger"/>
    <trip id="72" depart="181.49" from="218773868#1" to="-381452104#0" type="passenger"/>
    <trip id="73" depart="184.01" from="-244215399" to="-420317540" type="passenger"/>
    <trip id="74" depart="186.53" from="-420331830" to="-1126339777#0" type="passenger"/>
    <trip id="75" depart="189.05" from="-381452175#2" to="601902513#1" type="passenger"/>
    <trip id="76" depart="191.57" from="420317543#1" to="381447835#0" type="passenger"/>
    <trip id="77" depart="194.09" from="913009312#6" to="1126339777#0" type="passenger"/>
    <trip id="78" depart="196.61" from="381452174#0" to="420331830" type="passenger"/>
    <trip id="79" depart="199.13" from="117914348#1" to="1126339777#1" type="passenger"/>
    <trip id="80" depart="201.66" from="-381447833#1" to="913009312#1" type="passenger"/>
    <trip id="81" depart="204.18" from="-420319848#1" to="-381452106" type="passenger"/>
    <trip id="82" depart="206.70" from="-381452132" to="381452175#0" type="passenger"/>
    <trip id="83" depart="209.22" from="-420317543#0" to="381447835#1" type="passenger"/>
    <trip id="84" depart="211.74" from="381447833#0" to="913009312#2" type="passenger"/>
    <trip id="85" depart="214.26" from="420319840#0" to="913009312#3" type="passenger"/>
    <trip id="86" depart="216.78" from="-381452108#0" to="-117914348#0" type="passenger"/>
    <trip id="87" depart="219.30" from="-117914343#2" to="-381452106" type="passenger"/>
    <trip id="88" depart="221.82" from="-218773868#1" to="-381447833#1" type="passenger"/>
    <trip id="89" depart="224.34" from="381452104#0" to="-913009312#4" type="passenger"/>
    <trip id="90" depart="226.86" from="-381452174#1" to="117914343#0" type="passenger"/>
    <trip id="91" depart="229.38" from="-381452108#0" to="-420331825#3" type="passenger"/>
    <trip id="92" depart="231.90" from="-420331831" to="-117914351#0" type="passenger"/>
    <trip id="93" depart="234.42" from="913009312#3" to="420331830" type="passenger"/>
    <trip id="94" depart="236.95" from="-420331825#3" to="381447818" type="passenger"/>
    <trip id="95" depart="239.47" from="-117914343#1" to="-420331830" type="passenger"/>
    <trip id="96" depart="241.99" from="381447817#0" to="-913009312#1" type="passenger"/>
    <trip id="97" depart="244.51" from="-244215399" to="-913009315" type="passenger"/>
    <trip id="98" depart="247.03" from="-381452167" to="381447818" type="passenger"/>
    <trip id="99" depart="249.55" from="381447836#3" to="117914351#0" type="passenger"/>
    <trip id="100" depart="252.07" from="420331825#2" to="381452175#1" type="passenger"/>
    <trip id="101" depart="254.59" from="-381447817#0" to="913009312#7" type="passenger"/>
    <trip id="102" depart="257.11" from="381447835#1" to="117914348#2" type="passenger"/>
    <trip id="103" depart="259.63" from="-420317544#0" to="381447835#0" type="passenger"/>
    <trip id="104" depart="262.15" from="-420331831" to="117914352#0" type="passenger"/>
    <trip id="105" depart="264.67" from="381447817#1" to="117914348#1" type="passenger"/>
    <trip id="106" depart="267.19" from="381447817#0" to="-117914348#0" type="passenger"/>
    <trip id="107" depart="269.71" from="-381452108#1" to="-420331830" type="passenger"/>
    <trip id="108" depart="272.23" from="-420319848#2" to="-420331827" type="passenger"/>
    <trip id="109" depart="274.76" from="-420319840#0" to="-420319840#1" type="passenger"/>
    <trip id="110" depart="277.28" from="-218773868#4" to="420331831" type="passenger"/>
    <trip id="111" depart="279.80" from="381447835#1" to="420317543#0" type="passenger"/>
    <trip id="112" depart="282.32" from="-420319848#1" to="420331830" type="passenger"/>
    <trip id="113" depart="284.84" from="-913009312#2" to="-913009313#1" type="passenger"/>
    <trip id="114" depart="287.36" from="-117914343#1" to="-381452110" type="passenger"/>
    <trip id="115" depart="289.88" from="381447831" to="381452167" type="passenger"/>
    <trip id="116" depart="292.40" from="-420317544#1" to="420317544#1" type="passenger"/>
    <trip id="117" depart="294.92" from="381447835#0" to="-117914343#2" type="passenger"/>
    <trip id="118" depart="297.44" from="117914348#1" to="-1126339777#0" type="passenger"/>
    <trip id="119" depart="299.96" from="381447835#3" to="-420331825#4" type="passenger"/>
    <trip id="120" depart="302.48" from="-218773868#2" to="913009312#1" type="passenger"/>
    <trip id="121" depart="305.00" from="-601902513#0" to="381447835#1" type="passenger"/>
    <trip id="122" depart="307.52" from="-420319848#2" to="420331831" type="passenger"/>
    <trip id="123" depart="310.05" from="381447817#1" to="-420331825#0" type="passenger"/>
    <trip id="124" depart="312.57" from="-381452175#2" to="601902513#1" type="passenger"/>
    <trip id="125" depart="315.09" from="381447833#1" to="913009312#7" type="passenger"/>
    <trip id="126" depart="317.61" from="-381447836#2" to="-913009312#2" type="passenger"/>
    <trip id="127" depart="320.13" from="381447836#3" to="913009312#7" type="passenger"/>
    <trip id="128" depart="322.65" from="381452174#1" to="-913009312#7" type="passenger"/>
    <trip id="129" depart="325.17" from="601902513#0" to="381452160" type="passenger"/>
    <trip id="130" depart="327.69" from="-420319848#0" to="-420331827" type="passenger"/>
    <trip id="131" depart="330.21" from="381447834#0" to="-601902513#1" type="passenger"/>
    <trip id="132" depart="332.73" from="381447835#3" to="-218773868#3" type="passenger"/>
    <trip id="133" depart="335.25" from="117914351#0" to="381447817#1" type="passenger"/>
    <trip id="134" depart="337.77" from="381452167" to="601902513#0" type="passenger"/>
    <trip id="135" depart="340.29" from="-117914351#0" to="381447833#0" type="passenger"/>
    <trip id="136" depart="342.81" from="117914343#0" to="-381452175#1" type="passenger"/>
    <trip id="137" depart="345.34" from="-381452104#1" to="420331831" type="passenger"/>
    <trip id="138" depart="347.86" from="381447827" to="-218773868#2" type="passenger"/>
    <trip id="139" depart="350.38" from="-420319848#2" to="-117914352#0" type="passenger"/>
    <trip id="140" depart="352.90" from="-420331827" to="-420331825#4" type="passenger"/>
    <trip id="141" depart="355.42" from="-117914348#3" to="-117914352#0" type="passenger"/>
    <trip id="142" depart="357.94" from="-913009312#3" to="913009312#8" type="passenger"/>
    <trip id="143" depart="360.46" from="-420317543#1" to="601902513#1" type="passenger"/>
    <trip id="144" depart="362.98" from="-244215399" to="420317544#1" type="passenger"/>
    <trip id="145" depart="365.50" from="-381447817#1" to="381447835#3" type="passenger"/>
    <trip id="146" depart="368.02" from="-381447834#1" to="520307306" type="passenger"/>
    <trip id="147" depart="370.54" from="601902513#1" to="-381452167" type="passenger"/>
    <trip id="148" depart="373.06" from="913009313#1" to="381447836#3" type="passenger"/>
    <trip id="149" depart="375.58" from="-117914348#2" to="420331825#3" type="passenger"/>
    <trip id="150" depart="378.10" from="-913009312#1" to="-913009312#2" type="passenger"/>
    <trip id="151" depart="380.62" from="-913009312#5" to="-381452167" type="passenger"/>
    <trip id="152" depart="383.15" from="913009311" to="381452104#0" type="passenger"/>
    <trip id="153" depart="385.67" from="381452174#0" to="420317544#1" type="passenger"/>
    <trip id="154" depart="388.19" from="-381452174#1" to="381452104#0" type="passenger"/>
    <trip id="155" depart="390.71" from="381452172" to="-420331825#3" type="passenger"/>
    <trip id="156" depart="393.23" from="381447835#0" to="218773868#3" type="passenger"/>
    <trip id="157" depart="395.75" from="420331825#4" to="117914343#0" type="passenger"/>
    <trip id="158" depart="398.27" from="-420335669" to="381447818" type="passenger"/>
    <trip id="159" depart="400.79" from="381452175#0" to="381447835#2" type="passenger"/>
    <trip id="160" depart="403.31" from="-420335669" to="218773868#3" type="passenger"/>
    <trip id="161" depart="405.83" from="913009312#2" to="381447834#1" type="passenger"/>
    <trip id="162" depart="408.35" from="381452132" to="-381452104#0" type="passenger"/>
    <trip id="163" depart="410.87" from="-381452175#2" to="117914351#2" type="passenger"/>
    <trip id="164" depart="413.39" from="-218773868#2" to="-381447833#0" type="passenger"/>
    <trip id="165" depart="415.91" from="-420331827" to="420317543#1" type="passenger"/>
    <trip id="166" depart="418.44" from="420331827" to="-420317543#0" type="passenger"/>
    <trip id="167" depart="420.96" from="420331831" to="913009311" type="passenger"/>
    <trip id="168" depart="423.48" from="-520307306" to="-520307306" type="passenger"/>
    <trip id="169" depart="426.00" from="-381452167" to="-381447827" type="passenger"/>
    <trip id="170" depart="428.52" from="381452175#2" to="-420331825#1" type="passenger"/>
    <trip id="171" depart="431.04" from="-381447834#0" to="381452174#0" type="passenger"/>
    <trip id="172" depart="433.56" from="381452110" to="-381452174#1" type="passenger"/>
    <trip id="173" depart="436.08" from="381452122#3" to="420331825#1" type="passenger"/>
    <trip id="174" depart="438.60" from="117914351#0" to="420317543#0" type="passenger"/>
    <trip id="175" depart="441.12" from="-420319848#0" to="381452175#2" type="passenger"/>
    <trip id="176" depart="443.64" from="420317540" to="420319840#0" type="passenger"/>
    <trip id="177" depart="446.16" from="117914351#2" to="-420319847" type="passenger"/>
    <trip id="178" depart="448.68" from="420331827" to="420319840#1" type="passenger"/>
    <trip id="179" depart="451.20" from="-420331825#4" to="381452122#3" type="passenger"/>
    <trip id="180" depart="453.72" from="117914351#2" to="381452104#2" type="passenger"/>
    <trip id="181" depart="456.25" from="381452106" to="381447836#3" type="passenger"/>
    <trip id="182" depart="458.77" from="-913009312#2" to="913009312#7" type="passenger"/>
    <trip id="183" depart="461.29" from="381447835#0" to="117914348#0" type="passenger"/>
    <trip id="184" depart="463.81" from="-420317544#0" to="-913009312#1" type="passenger"/>
    <trip id="185" depart="466.33" from="913009312#9" to="-420331831" type="passenger"/>
    <trip id="186" depart="468.85" from="-420335669" to="-381447818" type="passenger"/>
    <trip id="187" depart="471.37" from="-420319848#2" to="-117914352#0" type="passenger"/>
    <trip id="188" depart="473.89" from="-420317543#0" to="-913009312#3" type="passenger"/>
    <trip id="189" depart="476.41" from="117914351#2" to="-381447817#0" type="passenger"/>
    <trip id="190" depart="478.93" from="381452104#0" to="420331831" type="passenger"/>
    <trip id="191" depart="481.45" from="381447836#0" to="-381447836#2" type="passenger"/>
    <trip id="192" depart="483.97" from="381447818" to="-117914348#2" type="passenger"/>
    <trip id="193" depart="486.49" from="381447817#1" to="381452174#1" type="passenger"/>
    <trip id="194" depart="489.01" from="-420331825#4" to="381452104#2" type="passenger"/>
    <trip id="195" depart="491.54" from="-381447829#0" to="117914351#0" type="passenger"/>
    <trip id="196" depart="494.06" from="381452175#1" to="913009312#5" type="passenger"/>
    <trip id="197" depart="496.58" from="420319840#0" to="1126339777#0" type="passenger"/>
    <trip id="198" depart="499.10" from="-913009312#4" to="-913009312#7" type="passenger"/>
    <trip id="199" depart="501.62" from="-420335669" to="-420319848#1" type="passenger"/>
    <trip id="200" depart="504.14" from="-913009312#8" to="-381447834#0" type="passenger"/>
    <trip id="201" depart="506.66" from="-117914351#0" to="-381452172" type="passenger"/>
    <trip id="202" depart="509.18" from="-218773868#2" to="-218773868#1" type="passenger"/>
    <trip id="203" depart="511.70" from="117914351#2" to="117914343#0" type="passenger"/>
    <trip id="204" depart="514.22" from="-381447833#0" to="117914348#3" type="passenger"/>
    <trip id="205" depart="516.74" from="-420331831" to="-601902513#1" type="passenger"/>
    <trip id="206" depart="519.26" from="381452122#3" to="-520307306" type="passenger"/>
    <trip id="207" depart="521.78" from="420319844" to="913009312#1" type="passenger"/>
    <trip id="208" depart="524.30" from="-381447836#0" to="-381447836#3" type="passenger"/>
    <trip id="209" depart="526.83" from="-420335669" to="381447834#1" type="passenger"/>
    <trip id="210" depart="529.35" from="381452110" to="-420319840#0" type="passenger"/>
    <trip id="211" depart="531.87" from="381452175#1" to="-420319840#0" type="passenger"/>
    <trip id="212" depart="534.39" from="913009312#3" to="-381452175#2" type="passenger"/>
    <trip id="213" depart="536.91" from="-420331825#2" to="-913009312#7" type="passenger"/>
    <trip id="214" depart="539.43" from="1126339777#0" to="-381452175#0" type="passenger"/>
    <trip id="215" depart="541.95" from="117914343#0" to="-913009312#5" type="passenger"/>
    <trip id="216" depart="544.47" from="-117914351#2" to="420319840#1" type="passenger"/>
    <trip id="217" depart="546.99" from="-381452175#0" to="218773868#3" type="passenger"/>
    <trip id="218" depart="549.51" from="-420319848#2" to="-381452172" type="passenger"/>
    <trip id="219" depart="552.03" from="-913009312#4" to="-420319840#1" type="passenger"/>
    <trip id="220" depart="554.55" from="381447817#1" to="381452174#1" type="passenger"/>
    <trip id="221" depart="557.07" from="218773868#3" to="1126339777#1" type="passenger"/>
    <trip id="222" depart="559.59" from="-420331827" to="381447829#0" type="passenger"/>
    <trip id="223" depart="562.11" from="-1126339777#0" to="-1126339777#1" type="passenger"/>
    <trip id="224" depart="564.64" from="-244215399" to="-381447836#3" type="passenger"/>
    <trip id="225" depart="567.16" from="381452175#0" to="420319840#1" type="passenger"/>
    <trip id="226" depart="569.68" from="218773868#3" to="-218773868#1" type="passenger"/>
    <trip id="227" depart="572.20" from="-913009312#6" to="381447817#0" type="passenger"/>
    <trip id="228" depart="574.72" from="913009312#7" to="420319840#1" type="passenger"/>
    <trip id="229" depart="577.24" from="381447829#0" to="-913009312#8" type="passenger"/>
    <trip id="230" depart="579.76" from="913009312#7" to="913009312#9" type="passenger"/>
    <trip id="231" depart="582.28" from="420319848#1" to="420331827" type="passenger"/>
    <trip id="232" depart="584.80" from="-218773868#4" to="117914343#2" type="passenger"/>
    <trip id="233" depart="587.32" from="913009312#3" to="420331831" type="passenger"/>
    <trip id="234" depart="589.84" from="381447833#1" to="913009312#2" type="passenger"/>
    <trip id="235" depart="592.36" from="381452175#1" to="381447836#2" type="passenger"/>
    <trip id="236" depart="594.88" from="420317543#1" to="-913009313#1" type="passenger"/>
    <trip id="237" depart="597.40" from="-381447818" to="117914348#0" type="passenger"/>
    <trip id="238" depart="599.93" from="381452110" to="381452160" type="passenger"/>
    <trip id="239" depart="602.45" from="381452104#1" to="117914352#1" type="passenger"/>
    <trip id="240" depart="604.97" from="-381452167" to="-420319847" type="passenger"/>
    <trip id="241" depart="607.49" from="381447829#0" to="-381452167" type="passenger"/>
    <trip id="242" depart="610.01" from="420319847" to="-381447833#1" type="passenger"/>
    <trip id="243" depart="612.53" from="-218773868#2" to="381452108#0" type="passenger"/>
    <trip id="244" depart="615.05" from="117914343#2" to="-381452167" type="passenger"/>
    <trip id="245" depart="617.57" from="-913009312#3" to="913009312#9" type="passenger"/>
    <trip id="246" depart="620.09" from="-381447834#1" to="117914352#0" type="passenger"/>
    <trip id="247" depart="622.61" from="117914351#0" to="-381452122#3" type="passenger"/>
    <trip id="248" depart="625.13" from="-218773868#0" to="-420317543#0" type="passenger"/>
    <trip id="249" depart="627.65" from="218773868#3" to="381452160" type="passenger"/>
    <trip id="250" depart="630.17" from="-420331831" to="381452174#0" type="passenger"/>
    <trip id="251" depart="632.69" from="381452110" to="-117914348#0" type="passenger"/>
    <trip id="252" depart="635.21" from="-1126339777#0" to="-117914352#0" type="passenger"/>
    <trip id="253" depart="637.74" from="381452175#2" to="-381447836#3" type="passenger"/>
    <trip id="254" depart="640.26" from="913009312#8" to="-420331831" type="passenger"/>
    <trip id="255" depart="642.78" from="-117914348#0" to="-601902513#1" type="passenger"/>
    <trip id="256" depart="645.30" from="381452106" to="117914351#2" type="passenger"/>
    <trip id="257" depart="647.82" from="381452122#3" to="-381452167" type="passenger"/>
    <trip id="258" depart="650.34" from="244215552#1" to="-381447836#3" type="passenger"/>
    <trip id="259" depart="652.86" from="913009312#2" to="420319848#0" type="passenger"/>
    <trip id="260" depart="655.38" from="117914348#2" to="913009312#1" type="passenger"/>
    <trip id="261" depart="657.90" from="-117914351#0" to="381447833#1" type="passenger"/>
    <trip id="262" depart="660.42" from="117914348#0" to="-913009315" type="passenger"/>
    <trip id="263" depart="662.94" from="-381452174#0" to="117914351#0" type="passenger"/>
    <trip id="264" depart="665.46" from="381452110" to="381452160" type="passenger"/>
    <trip id="265" depart="667.98" from="-420331827" to="-1126339777#1" type="passenger"/>
    <trip id="266" depart="670.50" from="381452132" to="-381452172" type="passenger"/>
    <trip id="267" depart="673.03" from="913009312#9" to="117914348#2" type="passenger"/>
    <trip id="268" depart="675.55" from="381452174#1" to="-117914348#0" type="passenger"/>
    <trip id="269" depart="678.07" from="-381452104#2" to="381447834#0" type="passenger"/>
    <trip id="270" depart="680.59" from="-117914352#0" to="-913009311" type="passenger"/>
    <trip id="271" depart="683.11" from="420331825#2" to="420331830" type="passenger"/>
    <trip id="272" depart="685.63" from="420319848#0" to="-420319844" type="passenger"/>
    <trip id="273" depart="688.15" from="420319847" to="-420331825#0" type="passenger"/>
    <trip id="274" depart="690.67" from="381447818" to="117914348#2" type="passenger"/>
    <trip id="275" depart="693.19" from="-913009312#2" to="-381452175#0" type="passenger"/>
    <trip id="276" depart="695.71" from="913009312#7" to="117914348#3" type="passenger"/>
    <trip id="277" depart="698.23" from="-913009312#5" to="-420331830" type="passenger"/>
    <trip id="278" depart="700.75" from="-420331831" to="-381447836#3" type="passenger"/>
    <trip id="279" depart="703.27" from="-117914352#0" to="-913009312#2" type="passenger"/>
    <trip id="280" depart="705.79" from="420317540" to="913009312#5" type="passenger"/>
    <trip id="281" depart="708.32" from="420317543#1" to="-420317540" type="passenger"/>
    <trip id="282" depart="710.84" from="-420335669" to="117914348#0" type="passenger"/>
    <trip id="283" depart="713.36" from="381452174#1" to="-117914351#2" type="passenger"/>
    <trip id="284" depart="715.88" from="-601902513#1" to="-218773868#1" type="passenger"/>
    <trip id="285" depart="718.40" from="-218773868#3" to="-420319848#1" type="passenger"/>
    <trip id="286" depart="720.92" from="420319847" to="-420331827" type="passenger"/>
    <trip id="287" depart="723.44" from="913009312#3" to="1126339777#0" type="passenger"/>
    <trip id="288" depart="725.96" from="218773868#3" to="-381447836#2" type="passenger"/>
    <trip id="289" depart="728.48" from="244215552#0" to="-913009312#7" type="passenger"/>
    <trip id="290" depart="731.00" from="-117914348#2" to="117914351#2" type="passenger"/>
    <trip id="291" depart="733.52" from="-381447829#0" to="913009312#8" type="passenger"/>
    <trip id="292" depart="736.04" from="913009312#6" to="-218773868#2" type="passenger"/>
    <trip id="293" depart="738.56" from="420331827" to="-420319848#1" type="passenger"/>
    <trip id="294" depart="741.08" from="420319848#1" to="-381447833#0" type="passenger"/>
    <trip id="295" depart="743.60" from="-913009312#1" to="-218773868#0" type="passenger"/>
    <trip id="296" depart="746.13" from="381447817#0" to="-381447836#0" type="passenger"/>
    <trip id="297" depart="748.65" from="913009312#6" to="913009312#8" type="passenger"/>
    <trip id="298" depart="751.17" from="381447836#0" to="381452175#1" type="passenger"/>
    <trip id="299" depart="753.69" from="-420331825#2" to="-913009312#3" type="passenger"/>
    <trip id="300" depart="756.21" from="-381452108#1" to="-420317540" type="passenger"/>
    <trip id="301" depart="758.73" from="-381452104#2" to="381447836#2" type="passenger"/>
    <trip id="302" depart="761.25" from="381452104#1" to="-218773868#2" type="passenger"/>
    <trip id="303" depart="763.77" from="-913009312#6" to="-420319848#1" type="passenger"/>
    <trip id="304" depart="766.29" from="-420331825#4" to="420319840#0" type="passenger"/>
    <trip id="305" depart="768.81" from="-420331827" to="381447833#0" type="passenger"/>
    <trip id="306" depart="771.33" from="117914351#0" to="117914343#2" type="passenger"/>
    <trip id="307" depart="773.85" from="-381452132" to="381447817#0" type="passenger"/>
    <trip id="308" depart="776.37" from="-381452175#2" to="-381447833#1" type="passenger"/>
    <trip id="309" depart="778.89" from="-117914348#3" to="381447835#3" type="passenger"/>
    <trip id="310" depart="781.42" from="-381447836#3" to="-913009312#8" type="passenger"/>
    <trip id="311" depart="783.94" from="117914343#0" to="-420319840#1" type="passenger"/>
    <trip id="312" depart="786.46" from="-420317543#0" to="601902513#0" type="passenger"/>
    <trip id="313" depart="788.98" from="381452104#1" to="117914351#2" type="passenger"/>
    <trip id="314" depart="791.50" from="-117914343#1" to="913009312#9" type="passenger"/>
    <trip id="315" depart="794.02" from="-420319848#2" to="-913009312#2" type="passenger"/>
    <trip id="316" depart="796.54" from="913009315" to="-381447817#1" type="passenger"/>
    <trip id="317" depart="799.06" from="-244215399" to="-913009312#1" type="passenger"/>
    <trip id="318" depart="801.58" from="913009312#3" to="381452175#2" type="passenger"/>
    <trip id="319" depart="804.10" from="420319847" to="420319840#0" type="passenger"/>
    <trip id="320" depart="806.62" from="520307306" to="-381447827" type="passenger"/>
    <trip id="321" depart="809.14" from="381452110" to="381447833#1" type="passenger"/>
    <trip id="322" depart="811.66" from="420319848#1" to="-381447817#0" type="passenger"/>
    <trip id="323" depart="814.18" from="117914351#0" to="-117914348#2" type="passenger"/>