<?xml version="1.0" encoding="UTF-8"?>

<!-- generated on 2026-04-16 00:51:16.686990 by Eclipse SUMO randomTrips.py v1.26.0
<configuration>
    <net-file value="/Users/junlee/Desktop/2026-1/js/result/report_commute_peak_tradeoff_top8_seed3_30min/sumo_nets/cw_6213/network.net.xml"/>
    <output-trip-file value="/Users/junlee/Desktop/2026-1/js/result/report_commute_peak_tradeoff_top8_seed3_30min/sumo_nets/cw_6213/routes_seed43.trips.xml"/>
    <route-file value="/Users/junlee/Desktop/2026-1/js/result/report_commute_peak_tradeoff_top8_seed3_30min/sumo_nets/cw_6213/routes_seed43.rou.xml"/>
    <vehicle-class value="passenger"/>
    <seed value="43"/>
    <end value="1800.0"/>
    <period value="0.8919426432720199"/>
</configuration>
-->

<routes xmlns:xsi="http://www.w3.org/2001/XMLSchema-instance" xsi:noNamespaceSchemaLocation="http://sumo.dlr.de/xsd/routes_file.xsd">
    <vType id="passenger" vClass="passenger"/>
    <trip id="0" depart="0.00" from="315658884#3" to="315658897#1" type="passenger"/>
    <trip id="1" depart="0.89" from="-315658884#3" to="315658884#1" type="passenger"/>
    <trip id="2" depart="1.78" from="318747848#6" to="619147739#6" type="passenger"/>
    <trip id="3" depart="2.68" from="770860548#1" to="712288152#1" type="passenger"/>
    <trip id="4" depart="3.57" from="318747848#2" to="315658897#1" type="passenger"/>
    <trip id="5" depart="4.46" from="-315658897#0" to="778973690" type="passenger"/>
    <trip id="6" depart="5.35" from="770860548#0" to="-770860548#1" type="passenger"/>
    <trip id="7" depart="6.24" from="773060732#1" to="318747848#3" type="passenger"/>
    <trip id="8" depart="7.14" from="333557072#3" to="777881147#1" type="passenger"/>
    <trip id="9" depart="8.03" from="773060732#2" to="1339655667#0" type="passenger"/>
    <trip id="10" depart="8.92" from="318747848#4" to="428544127" type="passenger"/>
    <trip id="11" depart="9.81" from="351672100#0" to="1339697075#2" type="passenger"/>
    <trip id="12" depart="10.70" from="78628775#1" to="318747848#6" type="passenger"/>
    <trip id="13" depart="11.60" from="-318747848#5" to="315658897#0" type="passenger"/>
    <trip id="14" depart="12.49" from="619147739#1" to="-315658884#4" type="passenger"/>
    <trip id="15" depart="13.38" from="-315658897#2" to="-318747848#7" type="passenger"/>
    <trip id="16" depart="14.27" from="-315658897#2" to="379943753#1" type="passenger"/>
    <trip id="17" depart="15.16" from="-318747848#4" to="318747848#4" type="passenger"/>
    <trip id="18" depart="16.05" from="315658884#1" to="-315658884#4" type="passenger"/>
    <trip id="19" depart="16.95" from="78628775#2" to="-318747848#7" type="passenger"/>
    <trip id="20" depart="17.84" from="773060732#2" to="773060732#2" type="passenger"/>
    <trip id="21" depart="18.73" from="315658897#1" to="777881147#1" type="passenger"/>
    <trip id="22" depart="19.62" from="619147739#0" to="-318747848#3" type="passenger"/>
    <trip id="23" depart="20.51" from="333557072#2" to="-651818430" type="passenger"/>
    <trip id="24" depart="21.41" from="-37403486#2" to="-37403486#2" type="passenger"/>
    <trip id="25" depart="22.30" from="78628775#0" to="379943755#1" type="passenger"/>
    <trip id="26" depart="23.19" from="-651817398#1" to="315658884#4" type="passenger"/>
    <trip id="27" depart="24.08" from="-315658897#0" to="-315658884#3" type="passenger"/>
    <trip id="28" depart="24.97" from="318747848#2" to="777881144#1" type="passenger"/>
    <trip id="29" depart="25.87" from="770860549" to="78628770#1" type="passenger"/>
    <trip id="30" depart="26.76" from="351672100#4" to="-464763971" type="passenger"/>
    <trip id="31" depart="27.65" from="-712288152#0" to="-351672100#0" type="passenger"/>
    <trip id="32" depart="28.54" from="-712288152#0" to="428544127" type="passenger"/>
    <trip id="33" depart="29.43" from="-315658897#1" to="428544127" type="passenger"/>
    <trip id="34" depart="30.33" from="619147739#2" to="315658896#2" type="passenger"/>
    <trip id="35" depart="31.22" from="315658896#2" to="315658884#3" type="passenger"/>
    <trip id="36" depart="32.11" from="773060732#3" to="619147739#6" type="passenger"/>
    <trip id="37" depart="33.00" from="-651817398#0" to="777881147#1" type="passenger"/>
    <trip id="38" depart="33.89" from="-651817398#5" to="315658896#3" type="passenger"/>
    <trip id="39" depart="34.79" from="-712288152#0" to="-351672100#1" type="passenger"/>
    <trip id="40" depart="35.68" from="-651817398#3" to="315658896#1" type="passenger"/>
    <trip id="41" depart="36.57" from="318747848#4" to="-315658896#1" type="passenger"/>
    <trip id="42" depart="37.46" from="315658897#1" to="777881144#1" type="passenger"/>
    <trip id="43" depart="38.35" from="318747848#3" to="-351672100#0" type="passenger"/>
    <trip id="44" depart="39.25" from="315658884#1" to="315658884#4" type="passenger"/>
    <trip id="45" depart="40.14" from="-318747848#4" to="379943755#1" type="passenger"/>
    <trip id="46" depart="41.03" from="315658896#2" to="712288152#1" type="passenger"/>
    <trip id="47" depart="41.92" from="-770860548#1" to="379943753#1" type="passenger"/>
    <trip id="48" depart="42.81" from="-955312947" to="-315658884#4" type="passenger"/>
    <trip id="49" depart="43.71" from="773060732#1" to="777881145" type="passenger"/>
    <trip id="50" depart="44.60" from="770860548#1" to="379943753#1" type="passenger"/>
    <trip id="51" depart="45.49" from="712288152#2" to="315658896#3" type="passenger"/>
    <trip id="52" depart="46.38" from="-315658884#2" to="712288152#0" type="passenger"/>
    <trip id="53" depart="47.27" from="-318747848#4" to="315658884#3" type="passenger"/>
    <trip id="54" depart="48.16" from="315658884#4" to="-318747848#7" type="passenger"/>
    <trip id="55" depart="49.06" from="-770860565" to="-318747848#4" type="passenger"/>
    <trip id="56" depart="49.95" from="-315658897#2" to="-315658884#1" type="passenger"/>
    <trip id="57" depart="50.84" from="318747848#4" to="-315658897#1" type="passenger"/>
    <trip id="58" depart="51.73" from="-318747848#5" to="315658884#1" type="passenger"/>
    <trip id="59" depart="52.62" from="384030401#1" to="-464763971" type="passenger"/>
    <trip id="60" depart="53.52" from="379943753#1" to="318747848#7" type="passenger"/>
    <trip id="61" depart="54.41" from="777881144#0" to="712288152#0" type="passenger"/>
    <trip id="62" depart="55.30" from="821457682#1" to="1339697075#1" type="passenger"/>
    <trip id="63" depart="56.19" from="-712288152#2" to="1339697076#1" type="passenger"/>
    <trip id="64" depart="57.08" from="-315658884#3" to="619147739#3" type="passenger"/>
    <trip id="65" depart="57.98" from="-315658896#3" to="315658884#1" type="passenger"/>
    <trip id="66" depart="58.87" from="-651817398#5" to="778973690" type="passenger"/>
    <trip id="67" depart="59.76" from="-770860548#2" to="1339697074" type="passenger"/>
    <trip id="68" depart="60.65" from="-770860549" to="-318747848#7" type="passenger"/>
    <trip id="69" depart="61.54" from="-651817398#0" to="-318747848#7" type="passenger"/>
    <trip id="70" depart="62.44" from="773060732#2" to="315658884#3" type="passenger"/>
    <trip id="71" depart="63.33" from="315658884#1" to="318747848#6" type="passenger"/>
    <trip id="72" depart="64.22" from="1339697075#3" to="1339697075#6" type="passenger"/>
    <trip id="73" depart="65.11" from="777881144#0" to="-315658884#2" type="passenger"/>
    <trip id="74" depart="66.00" from="318747848#3" to="315658897#2" type="passenger"/>
    <trip id="75" depart="66.90" from="619147739#2" to="-315658884#1" type="passenger"/>
    <trip id="76" depart="67.79" from="315658884#3" to="619147739#5" type="passenger"/>
    <trip id="77" depart="68.68" from="-651817398#5" to="379943753#0" type="passenger"/>
    <trip id="78" depart="69.57" from="-712288152#0" to="-37403486#1" type="passenger"/>
    <trip id="79" depart="70.46" from="315658884#1" to="315658897#1" type="passenger"/>
    <trip id="80" depart="71.36" from="-315658896#2" to="-37403486#1" type="passenger"/>
    <trip id="81" depart="72.25" from="712288152#1" to="1339697075#1" type="passenger"/>
    <trip id="82" depart="73.14" from="821457682#0" to="1339697075#2" type="passenger"/>
    <trip id="83" depart="74.03" from="315658884#2" to="1339697075#1" type="passenger"/>
    <trip id="84" depart="74.92" from="-315658897#2" to="777881145" type="passenger"/>
    <trip id="85" depart="75.82" from="-712288152#2" to="-712288152#1" type="passenger"/>
    <trip id="86" depart="76.71" from="315658884#3" to="428544127" type="passenger"/>
    <trip id="87" depart="77.60" from="821457682#0" to="333557072#3" type="passenger"/>
    <trip id="88" depart="78.49" from="78628775#1" to="1339697074" type="passenger"/>
    <trip id="89" depart="79.38" from="770860548#0" to="428544127" type="passenger"/>
    <trip id="90" depart="80.27" from="-315658884#3" to="712288152#1" type="passenger"/>
    <trip id="91" depart="81.17" from="773060732#2" to="773060732#4" type="passenger"/>
    <trip id="92" depart="82.06" from="-955312947" to="619147739#3" type="passenger"/>
    <trip id="93" depart="82.95" from="712288152#2" to="315658884#3" type="passenger"/>
    <trip id="94" depart="83.84" from="37403486#2" to="1339697075#3" type="passenger"/>
    <trip id="95" depart="84.73" from="773060732#4" to="318747848#3" type="passenger"/>
    <trip id="96" depart="85.63" from="-651817398#3" to="315658884#1" type="passenger"/>
    <trip id="97" depart="86.52" from="333557072#3" to="1339697075#3" type="passenger"/>
    <trip id="98" depart="87.41" from="-770860565" to="315658897#0" type="passenger"/>
    <trip id="99" depart="88.30" from="-318747848#5" to="315658896#3" type="passenger"/>
    <trip id="100" depart="89.19" from="-778973690" to="1339697075#3" type="passenger"/>
    <trip id="101" depart="90.09" from="-651817398#0" to="-315658884#1" type="passenger"/>
    <trip id="102" depart="90.98" from="333557072#3" to="-315658884#4" type="passenger"/>
    <trip id="103" depart="91.87" from="333557072#1" to="777881144#1" type="passenger"/>
    <trip id="104" depart="92.76" from="-315658896#3" to="315658896#2" type="passenger"/>
    <trip id="105" depart="93.65" from="-318747848#7" to="-315658896#2" type="passenger"/>
    <trip id="106" depart="94.55" from="1339697076#1" to="1339697074" type="passenger"/>
    <trip id="107" depart="95.44" from="651817398#4" to="651817398#5" type="passenger"/>
    <trip id="108" depart="96.33" from="770860548#0" to="379943755#1" type="passenger"/>
    <trip id="109" depart="97.22" from="770860549" to="1339697074" type="passenger"/>
    <trip id="110" depart="98.11" from="619147739#3" to="315658897#2" type="passenger"/>
    <trip id="111" depart="99.01" from="-318747848#2" to="1339697074" type="passenger"/>
    <trip id="112" depart="99.90" from="619147739#4" to="-315658884#2" type="passenger"/>
    <trip id="113" depart="100.79" from="-651817398#3" to="-315658884#1" type="passenger"/>
    <trip id="114" depart="101.68" from="315658896#2" to="-37403486#2" type="passenger"/>
    <trip id="115" depart="102.57" from="318747848#6" to="-318747848#6" type="passenger"/>
    <trip id="116" depart="103.47" from="379943755#1" to="318747848#7" type="passenger"/>
    <trip id="117" depart="104.36" from="351672100#2" to="1339697075#1" type="passenger"/>
    <trip id="118" depart="105.25" from="821457682#0" to="770860548#2" type="passenger"/>
    <trip id="119" depart="106.14" from="773060732#1" to="778973690" type="passenger"/>
    <trip id="120" depart="107.03" from="1339655670" to="-351672100#0" type="passenger"/>
    <trip id="121" depart="107.93" from="318747848#5" to="315658896#1" type="passenger"/>
    <trip id="122" depart="108.82" from="773060732#4" to="384030395" type="passenger"/>
    <trip id="123" depart="109.71" from="318747848#3" to="1339697075#3" type="passenger"/>
    <trip id="124" depart="110.60" from="-651817398#0" to="315658884#4" type="passenger"/>
    <trip id="125" depart="111.49" from="78628775#0" to="-351672100#2" type="passenger"/>
    <trip id="126" depart="112.38" from="-651817398#5" to="-318747848#3" type="passenger"/>
    <trip id="127" depart="113.28" from="-318747848#2" to="712288152#2" type="passenger"/>
    <trip id="128" depart="114.17" from="-770860549" to="379943755#1" type="passenger"/>
    <trip id="129" depart="115.06" from="315658884#3" to="-315658884#3" type="passenger"/>
    <trip id="130" depart="115.95" from="-315658897#1" to="-318747848#7" type="passenger"/>
    <trip id="131" depart="116.84" from="712288152#0" to="428544127" type="passenger"/>
    <trip id="132" depart="117.74" from="773060732#1" to="1339655667#1" type="passenger"/>
    <trip id="133" depart="118.63" from="315658897#1" to="-315658884#2" type="passenger"/>
    <trip id="134" depart="119.52" from="-651817398#0" to="1339697075#5" type="passenger"/>
    <trip id="135" depart="120.41" from="-315658897#0" to="1339697076#0" type="passenger"/>
    <trip id="136" depart="121.30" from="-651817398#2" to="712288152#0" type="passenger"/>
    <trip id="137" depart="122.20" from="-315658896#2" to="-315658884#1" type="passenger"/>
    <trip id="138" depart="123.09" from="619147739#3" to="619147739#3" type="passenger"/>
    <trip id="139" depart="123.98" from="-651817398#2" to="-318747848#7" type="passenger"/>
    <trip id="140" depart="124.87" from="-318747848#5" to="1339655667#0" type="passenger"/>
    <trip id="141" depart="125.76" from="333557072#3" to="78628775#2" type="passenger"/>
    <trip id="142" depart="126.66" from="333557072#3" to="315658897#1" type="passenger"/>
    <trip id="143" depart="127.55" from="315658897#1" to="315658897#2" type="passenger"/>
    <trip id="144" depart="128.44" from="78628775#2" to="777881144#1" type="passenger"/>
    <trip id="145" depart="129.33" from="-770860548#2" to="-351672100#0" type="passenger"/>
    <trip id="146" depart="130.22" from="-651817398#1" to="1339697074" type="passenger"/>
    <trip id="147" depart="131.12" from="315658896#2" to="315658884#2" type="passenger"/>
    <trip id="148" depart="132.01" from="-315658884#2" to="-318747848#7" type="passenger"/>
    <trip id="149" depart="132.90" from="315658884#1" to="315658897#1" type="passenger"/>
    <trip id="150" depart="133.79" from="619147739#4" to="619147739#6" type="passenger"/>
    <trip id="151" depart="134.68" from="-770860548#1" to="315658897#2" type="passenger"/>
    <trip id="152" depart="135.58" from="770860548#0" to="619147739#4" type="passenger"/>
    <trip id="153" depart="136.47" from="-315658884#3" to="619147739#3" type="passenger"/>
    <trip id="154" depart="137.36" from="-315658896#3" to="-1339655670" type="passenger"/>
    <trip id="155" depart="138.25" from="-770860548#2" to="821457682#0" type="passenger"/>
    <trip id="156" depart="139.14" from="-651817398#0" to="315658897#2" type="passenger"/>
    <trip id="157" depart="140.03" from="-315658897#1" to="-315658884#3" type="passenger"/>
    <trip id="158" depart="140.93" from="-315658884#3" to="-315658884#1" type="passenger"/>
    <trip id="159" depart="141.82" from="318747848#4" to="619147739#6" type="passenger"/>
    <trip id="160" depart="142.71" from="78628775#0" to="778973690" type="passenger"/>
    <trip id="161" depart="143.60" from="770860548#0" to="770860565" type="passenger"/>
    <trip id="162" depart="144.49" from="78628775#0" to="-770860548#0" type="passenger"/>
    <trip id="163" depart="145.39" from="315658884#1" to="-318747848#7" type="passenger"/>
    <trip id="164" depart="146.28" from="-315658897#2" to="-315658896#1" type="passenger"/>
    <trip id="165" depart="147.17" from="-315658884#4" to="318747848#5" type="passenger"/>
    <trip id="166" depart="148.06" from="318747848#5" to="-351672100#4" type="passenger"/>
    <trip id="167" depart="148.95" from="-770860548#2" to="-318747848#5" type="passenger"/>
    <trip id="168" depart="149.85" from="712288152#1" to="1339697074" type="passenger"/>
    <trip id="169" depart="150.74" from="333557072#0" to="315658884#3" type="passenger"/>
    <trip id="170" depart="151.63" from="-315658884#4" to="318747848#5" type="passenger"/>
    <trip id="171" depart="152.52" from="-315658884#4" to="-384030401#1" type="passenger"/>
    <trip id="172" depart="153.41" from="770860548#0" to="1339655667#0" type="passenger"/>
    <trip id="173" depart="154.31" from="712288152#1" to="-315658884#1" type="passenger"/>
    <trip id="174" depart="155.20" from="-315658897#0" to="428544127" type="passenger"/>
    <trip id="175" depart="156.09" from="770860565" to="315658884#3" type="passenger"/>
    <trip id="176" depart="156.98" from="-315658897#2" to="-318747848#2" type="passenger"/>
    <trip id="177" depart="157.87" from="770860548#0" to="-770860548#1" type="passenger"/>
    <trip id="178" depart="158.77" from="-651817398#4" to="315658884#4" type="passenger"/>
    <trip id="179" depart="159.66" from="-712288152#0" to="1339655667#0" type="passenger"/>
    <trip id="180" depart="160.55" from="-770860549" to="315658884#1" type="passenger"/>
    <trip id="181" depart="161.44" from="-651817398#3" to="318747848#7" type="passenger"/>
    <trip id="182" depart="162.33" from="777881144#0" to="315658897#2" type="passenger"/>
    <trip id="183" depart="163.23" from="-315658896#2" to="-318747848#5" type="passenger"/>
    <trip id="184" depart="164.12" from="379943755#1" to="428544127" type="passenger"/>
    <trip id="185" depart="165.01" from="619147739#3" to="315658884#3" type="passenger"/>
    <trip id="186" depart="165.90" from="-315658884#3" to="619147739#4" type="passenger"/>
    <trip id="187" depart="166.79" from="379943753#1" to="1339697075#2" type="passenger"/>
    <trip id="188" depart="167.69" from="318747848#3" to="315658897#0" type="passenger"/>
    <trip id="189" depart="168.58" from="-315658897#1" to="315658897#1" type="passenger"/>
    <trip id="190" depart="169.47" from="318747848#5" to="-315658884#1" type="passenger"/>
    <trip id="191" depart="170.36" from="-318747848#3" to="315658884#2" type="passenger"/>
    <trip id="192" depart="171.25" from="770860565" to="712288152#1" type="passenger"/>
    <trip id="193" depart="172.14" from="315658897#0" to="619147739#5" type="passenger"/>
    <trip id="194" depart="173.04" from="773060732#1" to="1339697075#1" type="passenger"/>
    <trip id="195" depart="173.93" from="315658897#1" to="619147739#4" type="passenger"/>
    <trip id="196" depart="174.82" from="619147739#4" to="712288152#2" type="passenger"/>
    <trip id="197" depart="175.71" from="-315658897#2" to="379943755#1" type="passenger"/>
    <trip id="198" depart="176.60" from="-315658884#1" to="-315658897#0" type="passenger"/>
    <trip id="199" depart="177.50" from="-315658897#1" to="955312947" type="passenger"/>
    <trip id="200" depart="178.39" from="318747848#5" to="777881145" type="passenger"/>
    <trip id="201" depart="179.28" from="315658884#4" to="379943753#1" type="passenger"/>
    <trip id="202" depart="180.17" from="619147739#3" to="-315658896#1" type="passenger"/>
    <trip id="203" depart="181.06" from="-955312947" to="1339697075#4" type="passenger"/>
    <trip id="204" depart="181.96" from="770860548#1" to="379943753#1" type="passenger"/>
    <trip id="205" depart="182.85" from="1339655667#1" to="-351672100#2" type="passenger"/>
    <trip id="206" depart="183.74" from="315658896#1" to="318747848#7" type="passenger"/>
    <trip id="207" depart="184.63" from="384030401#1" to="384030401#1" type="passenger"/>
    <trip id="208" depart="185.52" from="-770860565" to="315658896#2" type="passenger"/>
    <trip id="209" depart="186.42" from="619147739#5" to="777881145" type="passenger"/>
    <trip id="210" depart="187.31" from="619147739#1" to="315658897#2" type="passenger"/>
    <trip id="211" depart="188.20" from="-315658884#3" to="315658884#4" type="passenger"/>
    <trip id="212" depart="189.09" from="315658897#0" to="318747848#6" type="passenger"/>
    <trip id="213" depart="189.98" from="318747848#6" to="315658884#4" type="passenger"/>
    <trip id="214" depart="190.88" from="-318747848#3" to="712288152#0" type="passenger"/>
    <trip id="215" depart="191.77" from="-651817398#5" to="1339697075#4" type="passenger"/>
    <trip id="216" depart="192.66" from="-770860549" to="1339697075#4" type="passenger"/>
    <trip id="217" depart="193.55" from="1339697075#3" to="1339697075#4" type="passenger"/>
    <trip id="218" depart="194.44" from="-651817398#4" to="-318747848#7" type="passenger"/>
    <trip id="219" depart="195.34" from="619147739#4" to="315658897#1" type="passenger"/>
    <trip id="220" depart="196.23" from="712288152#0" to="-464763971" type="passenger"/>
    <trip id="221" depart="197.12" from="821457682#1" to="-318747848#2" type="passenger"/>
    <trip id="222" depart="198.01" from="-955312947" to="315658897#2" type="passenger"/>
    <trip id="223" depart="198.90" from="777881144#1" to="777881147#1" type="passenger"/>
    <trip id="224" depart="199.80" from="315658897#0" to="318747848#7" type="passenger"/>
    <trip id="225" depart="200.69" from="-315658897#2" to="-351672100#1" type="passenger"/>
    <trip id="226" depart="201.58" from="-315658897#0" to="379943755#1" type="passenger"/>
    <trip id="227" depart="202.47" from="315658884#1" to="-384030401#1" type="passenger"/>
    <trip id="228" depart="203.36" from="-315658897#1" to="379943753#1" type="passenger"/>
    <trip id="229" depart="204.25" from="619147739#2" to="-384030401#0" type="passenger"/>
    <trip id="230" depart="205.15" from="-315658896#2" to="-464763971" type="passenger"/>
    <trip id="231" depart="206.04" from="-770860565" to="-770860548#0" type="passenger"/>
    <trip id="232" depart="206.93" from="333557072#3" to="-384030401#0" type="passenger"/>
    <trip id="233" depart="207.82" from="-712288152#1" to="1339697075#5" type="passenger"/>
    <trip id="234" depart="208.71" from="428544127" to="1339697075#3" type="passenger"/>
    <trip id="235" depart="209.61" from="619147739#5" to="315658897#2" type="passenger"/>
    <trip id="236" depart="210.50" from="773060732#1" to="-384030401#0" type="passenger"/>
    <trip id="237" depart="211.39" from="-315658896#2" to="777881147#1" type="passenger"/>
    <trip id="238" depart="212.28" from="315658884#3" to="315658884#1" type="passenger"/>
    <trip id="239" depart="213.17" from="318747848#4" to="379943753#0" type="passenger"/>
    <trip id="240" depart="214.07" from="379943753#1" to="379943753#1" type="passenger"/>
    <trip id="241" depart="214.96" from="773060732#1" to="318747848#4" type="passenger"/>
    <trip id="242" depart="215.85" from="770860565" to="-318747848#7" type="passenger"/>
    <trip id="243" depart="216.74" from="-318747848#4" to="-315658896#2" type="passenger"/>
    <trip id="244" depart="217.63" from="333557072#0" to="1339697075#3" type="passenger"/>
    <trip id="245" depart="218.53" from="619147739#3" to="315658884#2" type="passenger"/>
    <trip id="246" depart="219.42" from="315658884#2" to="428544127" type="passenger"/>
    <trip id="247" depart="220.31" from="-651817398#4" to="1339697075#5" type="passenger"/>
    <trip id="248" depart="221.20" from="318747848#4" to="1339697075#3" type="passenger"/>
    <trip id="249" depart="222.09" from="315658884#1" to="-1339655670" type="passenger"/>
    <trip id="250" depart="222.99" from="619147739#0" to="651817398#1" type="passenger"/>
    <trip id="251" depart="223.88" from="78628775#1" to="315658896#2" type="passenger"/>
    <trip id="252" depart="224.77" from="-315658897#0" to="1339697075#6" type="passenger"/>
    <trip id="253" depart="225.66" from="315658896#1" to="712288152#1" type="passenger"/>
    <trip id="254" depart="226.55" from="333557072#3" to="315658884#1" type="passenger"/>
    <trip id="255" depart="227.45" from="318747848#6" to="315658884#4" type="passenger"/>
    <trip id="256" depart="228.34" from="-315658884#4" to="-351672100#4" type="passenger"/>
    <trip id="257" depart="229.23" from="333557072#3" to="1339697075#1" type="passenger"/>
    <trip id="258" depart="230.12" from="712288152#2" to="1339655667#0" type="passenger"/>
    <trip id="259" depart="231.01" from="-770860548#2" to="318747848#7" type="passenger"/>
    <trip id="260" depart="231.91" from="-651817398#4" to="-351672100#4" type="passenger"/>
    <trip id="261" depart="232.80" from="318747848#7" to="428544127" type="passenger"/>
    <trip id="262" depart="233.69" from="821457682#0" to="315658896#3" type="passenger"/>
    <trip id="263" depart="234.58" from="712288152#2" to="-318747848#6" type="passenger"/>
    <trip id="264" depart="235.47" from="333557072#3" to="318747848#6" type="passenger"/>
    <trip id="265" depart="236.36" from="770860549" to="-351672100#4" type="passenger"/>
    <trip id="266" depart="237.26" from="1339655670" to="1339697075#3" type="passenger"/>
    <trip id="267" depart="238.15" from="333557072#1" to="318747848#6" type="passenger"/>
    <trip id="268" depart="239.04" from="-318747848#6" to="712288152#0" type="passenger"/>
    <trip id="269" depart="239.93" from="315658896#1" to="315658896#3" type="passenger"/>
    <trip id="270" depart="240.82" from="78628775#0" to="315658896#1" type="passenger"/>
    <trip id="271" depart="241.72" from="-318747848#2" to="379943753#1" type="passenger"/>
    <trip id="272" depart="242.61" from="-770860548#2" to="-315658897#1" type="passenger"/>
    <trip id="273" depart="243.50" from="78628775#2" to="619147739#6" type="passenger"/>
    <trip id="274" depart="244.39" from="773060732#2" to="1339655667#1" type="passenger"/>
    <trip id="275" depart="245.28" from="-651817398#5" to="777881145" type="passenger"/>
    <trip id="276" depart="246.18" from="315658884#2" to="-464763971" type="passenger"/>
    <trip id="277" depart="247.07" from="773060732#4" to="955312947" type="passenger"/>
    <trip id="278" depart="247.96" from="318747848#6" to="955312947" type="passenger"/>
    <trip id="279" depart="248.85" from="619147739#2" to="712288152#1" type="passenger"/>
    <trip id="280" depart="249.74" from="315658884#2" to="384030395" type="passenger"/>
    <trip id="281" depart="250.64" from="318747848#5" to="-315658884#3" type="passenger"/>
    <trip id="282" depart="251.53" from="619147739#1" to="777881147#1" type="passenger"/>
    <trip id="283" depart="252.42" from="712288152#2" to="428544127" type="passenger"/>
    <trip id="284" depart="253.31" from="773060732#0" to="315658884#3" type="passenger"/>
    <trip id="285" depart="254.20" from="-315658884#1" to="-315658897#0" type="passenger"/>
    <trip id="286" depart="255.10" from="770860548#2" to="333557072#5" type="passenger"/>
    <trip id="287" depart="255.99" from="-315658884#3" to="712288152#0" type="passenger"/>
    <trip id="288" depart="256.88" from="773060732#4" to="1339697075#6" type="passenger"/>
    <trip id="289" depart="257.77" from="773060732#3" to="1339697074" type="passenger"/>
    <trip id="290" depart="258.66" from="-315658884#3" to="-1339655670" type="passenger"/>
    <trip id="291" depart="259.56" from="379943753#0" to="-315658884#2" type="passenger"/>
    <trip id="292" depart="260.45" from="315658896#2" to="619147739#3" type="passenger"/>
    <trip id="293" depart="261.34" from="770860548#0" to="379943753#1" type="passenger"/>
    <trip id="294" depart="262.23" from="-651817398#3" to="315658884#2" type="passenger"/>
    <trip id="295" depart="263.12" from="821457682#0" to="315658897#1" type="passenger"/>
    <trip id="296" depart="264.02" from="770860548#1" to="318747848#6" type="passenger"/>
    <trip id="297" depart="264.91" from="315658884#4" to="712288152#2" type="passenger"/>
    <trip id="298" depart="265.80" from="-651817398#1" to="1339697075#6" type="passenger"/>
    <trip id="299" depart="266.69" from="770860565" to="1339697075#6" type="passenger"/>
    <trip id="300" depart="267.58" from="-770860565" to="1339697075#4" type="passenger"/>
    <trip id="301" depart="268.47" from="-651817398#4" to="-37403486#1" type="passenger"/>
    <trip id="302" depart="269.37" from="333557072#1" to="-37403486#2" type="passenger"/>
    <trip id="303" depart="270.26" from="-651817398#4" to="-651817398#3" type="passenger"/>
    <trip id="304" depart="271.15" from="318747848#3" to="712288152#0" type="passenger"/>
    <trip id="305" depart="272.04" from="315658884#3" to="-318747848#6" type="passenger"/>
    <trip id="306" depart="272.93" from="712288152#0" to="315658896#3" type="passenger"/>
    <trip id="307" depart="273.83" from="333557072#2" to="318747848#3" type="passenger"/>
    <trip id="308" depart="274.72" from="-712288152#0" to="384030395" type="passenger"/>
    <trip id="309" depart="275.61" from="-770860548#2" to="1339697074" type="passenger"/>
    <trip id="310" depart="276.50" from="318747848#2" to="1339697075#6" type="passenger"/>
    <trip id="311" depart="277.39" from="333557072#3" to="-315658884#1" type="passenger"/>
    <trip id="312" depart="278.29" from="821457682#0" to="619147739#5" type="passenger"/>
    <trip id="313" depart="279.18" from="315658897#0" to="1339697075#3" type="passenger"/>
    <trip id="314" depart="280.07" from="-318747848#2" to="1339655667#0" type="passenger"/>
    <trip id="315" depart="280.96" from="318747848#3" to="1339697075#2" type="passenger"/>
    <trip id="316" depart="281.85" from="773060732#3" to="712288152#2" type="passenger"/>
    <trip id="317" depart="282.75" from="619147739#0" to="619147739#5" type="passenger"/>
    <trip id="318" depart="283.64" from="333557072#1" to="384030395" type="passenger"/>
    <trip id="319" depart="284.53" from="619147739#5" to="379943753#1" type="passenger"/>
    <trip id="320" depart="285.42" from="773060732#3" to="-464763971" type="passenger"/>
    <trip id="321" depart="286.31" from="333557072#1" to="333557072#3" type="passenger"/>
    <trip id="322" depart="287.21" from="-770860548#2" to="-315658897#1" type="passenger"/>
    <trip id="323" depart="288.10" from="-651817398#2" to="777881147#1" type="passenger"/>