<?xml version="1.0" encoding="UTF-8"?>

<!-- generated on 2026-04-15T00:19:36.221269+09:00 by Eclipse SUMO netconvert 1.26.0
<netconvertConfiguration xmlns:xsi="http://www.w3.org/2001/XMLSchema-instance" xsi:noNamespaceSchemaLocation="http://sumo.dlr.de/xsd/netconvertConfiguration.xsd">

    <input>
        <osm-files value="/Users/junlee/Desktop/2026-1/js/result/2026-04-15_00-06-49/sumo_nets/cw_10383/map.osm"/>
    </input>

    <output>
        <output-file value="/Users/junlee/Desktop/2026-1/js/result/2026-04-15_00-06-49/sumo_nets/cw_10383/network.net.xml"/>
    </output>

    <projection>
        <proj.utm value="true"/>
    </projection>

    <processing>
        <geometry.remove value="true"/>
        <roundabouts.guess value="true"/>
    </processing>

    <tls_building>
        <tls.guess value="true"/>
        <tls.guess-signals value="true"/>
    </tls_building>

    <ramp_guessing>
        <ramps.guess value="true"/>
    </ramp_guessing>

    <edge_removal>
        <keep-edges.by-vclass value="passenger,pedestrian"/>
    </edge_removal>

    <junctions>
        <no-turnarounds value="true"/>
        <junctions.join value="true"/>
    </junctions>

    <pedestrian>
        <sidewalks.guess value="true"/>
        <sidewalks.guess.max-speed value="13.89"/>
        <crossings.guess value="true"/>
    </pedestrian>

    <report>
        <verbose value="true"/>
    </report>

</netconvertConfiguration>
-->

<net version="1.20" junctionCornerDetail="5" walkingareas="true" limitTurnSpeed="5.50" xmlns:xsi="http://www.w3.org/2001/XMLSchema-instance" xsi:noNamespaceSchemaLocation="http://sumo.dlr.de/xsd/net_file.xsd">

    <location netOffset="-320494.20,-4157832.89" convBoundary="0.00,0.00,1172.87,908.69" origBoundary="126.967779,37.550196,126.988830,37.561120" projParameter="+proj=utm +zone=52 +ellps=WGS84 +datum=WGS84 +units=m +no_defs"/>

    <type id="highway.footway" priority="1" numLanes="1" speed="2.78" allow="pedestrian" oneway="1" width="2.00"/>
    <type id="highway.pedestrian" priority="1" numLanes="1" speed="2.78" allow="pedestrian" oneway="1" width="2.00"/>
    <type id="highway.primary" priority="12" numLanes="2" speed="27.78" disallow="tram rail_urban rail rail_electric rail_fast ship container cable_car subway aircraft wheelchair scooter drone" oneway="0"/>
    <type id="highway.residential" priority="3" numLanes="1" speed="13.89" disallow="tram rail_urban rail rail_electric rail_fast ship container cable_car subway aircraft wheelchair scooter drone" oneway="0"/>
    <type id="highway.secondary" priority="11" numLanes="1" speed="27.78" disallow="tram rail_urban rail rail_electric rail_fast ship container cable_car subway aircraft wheelchair scooter drone" oneway="0"/>
    <type id="highway.secondary_link" priority="6" numLanes="1" speed="22.22" disallow="tram rail_urban rail rail_electric rail_fast ship container cable_car subway aircraft wheelchair scooter drone" oneway="0"/>
    <type id="highway.service" priority="1" numLanes="1" speed="5.56" allow="pedestrian delivery bicycle" oneway="0"/>
    <type id="highway.steps" priority="1" numLanes="1" speed="1.39" allow="pedestrian" oneway="1" width="2.00"/>
    <type id="highway.tertiary" priority="10" numLanes="1" speed="22.22" disallow="tram rail_urban rail rail_electric rail_fast ship container cable_car subway aircraft wheelchair scooter drone" oneway="0"/>
    <type id="highway.unclassified" priority="4" numLanes="1" speed="13.89" disallow="tram rail_urban rail rail_electric rail_fast ship container cable_car subway aircraft wheelchair scooter drone" oneway="0"/>

    <edge id=":10253014033_0" function="internal">
        <lane id=":10253014033_0_0" index="0" disallow="tram rail_urban rail rail_electric rail_fast ship container cable_car subway aircraft wheelchair scooter drone" speed="27.78" length="5.26" shape="1140.77,557.77 1136.50,560.85"/>
    </edge>
    <edge id=":10253014033_w0" function="walkingarea">
        <lane id=":10253014033_w0_0" index="0" allow="pedestrian" speed="2.78" length="4.72" width="3.20" shape="1139.68,562.37 1141.36,561.28 1141.01,560.44 1141.01,560.06 1141.12,559.70 1141.36,559.37 1141.70,559.07 1139.83,556.47 1138.90,556.89 1138.44,556.91 1137.97,556.79 1137.51,556.56 1137.05,556.19 1135.69,557.65 1136.16,558.32 1136.20,558.64 1136.12,558.95 1135.91,559.26 1135.57,559.55 1137.44,562.15 1138.32,561.71 1138.71,561.69 1139.07,561.79 1139.39,562.02"/>
    </edge>
    <edge id=":11059693772_0" function="internal">
        <lane id=":11059693772_0_0" index="0" disallow="tram rail_urban rail rail_electric rail_fast ship container cable_car subway aircraft wheelchair scooter drone" speed="27.78" length="0.30" shape="789.18,551.97 789.38,551.75"/>
    </edge>
    <edge id=":11177412832_0" function="internal">
        <lane id=":11177412832_0_0" index="0" disallow="pedestrian tram rail_urban rail rail_electric rail_fast ship container cable_car subway aircraft wheelchair scooter drone" speed="8.47" length="1.34" shape="493.08,476.80 492.71,476.67 492.44,476.60 492.17,476.57 491.77,476.58"/>
    </edge>
    <edge id=":11177412832_1" function="internal">
        <lane id=":11177412832_1_0" index="0" disallow="pedestrian tram rail_urban rail rail_electric rail_fast ship container cable_car subway aircraft wheelchair scooter drone" speed="11.47" length="2.54" shape="491.72,473.38 492.47,473.37 492.98,473.42 493.48,473.55 494.19,473.80"/>
    </edge>
    <edge id=":11177412832_c0" function="crossing" crossingEdges="464445691#1 -464445691#1">
        <lane id=":11177412832_c0_0" index="0" allow="pedestrian" speed="2.78" length="6.40" width="4.00" shape="492.87,471.60 490.65,477.61" outlineShape="494.75,472.30 492.53,478.30 491.81,478.72 491.83,480.18 492.49,478.39 488.77,476.91 491.00,470.91 491.70,469.78 491.69,471.78 492.35,471.77 492.85,471.78 493.25,471.83 493.65,471.92 494.12,472.07"/>
    </edge>
    <edge id=":11177412832_w0" function="walkingarea">
        <lane id=":11177412832_w0_0" index="0" allow="pedestrian" speed="2.78" length="1.52" width="4.00" shape="491.80,478.18 491.83,480.18 492.53,478.30 492.38,478.25 492.27,478.21 492.17,478.19 492.07,478.18 491.96,478.17"/>
    </edge>
    <edge id=":11177412832_w1" function="walkingarea">
        <lane id=":11177412832_w1_0" index="0" allow="pedestrian" speed="2.78" length="2.39" width="4.00" shape="494.75,472.30 495.44,470.42 494.67,470.14 494.09,469.95 493.59,469.84 493.09,469.78 492.48,469.77 491.65,469.78 491.69,471.78 492.35,471.77 492.85,471.78 493.25,471.83 493.65,471.92 494.12,472.07"/>
    </edge>
    <edge id=":11225387918_0" function="internal">
        <lane id=":11225387918_0_0" index="0" disallow="tram rail_urban rail rail_electric rail_fast ship container cable_car subway aircraft wheelchair scooter drone" speed="27.78" length="5.12" shape="837.07,643.75 832.15,642.35"/>
    </edge>
    <edge id=":11225387918_w0" function="walkingarea">
        <lane id=":11225387918_w0_0" index="0" allow="pedestrian" speed="2.78" length="4.60" width="3.20" shape="836.63,645.29 837.51,642.21 836.69,641.79 836.44,641.49 836.30,641.13 836.26,640.72 836.33,640.24 834.39,639.76 834.03,640.52 833.76,640.74 833.43,640.87 833.04,640.89 832.59,640.81 831.71,643.88 832.53,644.29 832.78,644.59 832.92,644.95 832.96,645.36 832.88,645.84 834.82,646.33 835.18,645.56 835.46,645.34 835.79,645.22 836.18,645.20"/>
    </edge>
    <edge id=":11340902117_w0" function="walkingarea">
        <lane id=":11340902117_w0_0" index="0" allow="pedestrian" speed="2.78" length="3.97" width="2.00" shape="751.11,492.29 753.10,492.09 752.96,490.46 752.95,489.89 753.00,489.32 753.12,488.64 753.29,487.72 751.33,487.33 750.99,488.15 750.71,488.44 750.36,488.64 749.93,488.77 749.44,488.82 749.46,490.82 750.31,490.97 750.62,491.18 750.86,491.47 751.02,491.84"/>
    </edge>
    <edge id=":11449716191_0" function="internal">
        <lane id=":11449716191_0_0" index="0" disallow="pedestrian tram rail_urban rail rail_electric rail_fast ship container cable_car subway aircraft wheelchair scooter drone" speed="13.89" length="5.01" shape="962.60,754.38 962.12,759.38"/>
    </edge>
    <edge id=":11449716191_1" function="internal">
        <lane id=":11449716191_1_0" index="0" disallow="pedestrian tram rail_urban rail rail_electric rail_fast ship container cable_car subway aircraft wheelchair scooter drone" speed="13.89" length="5.01" shape="958.93,759.06 959.42,754.08"/>
    </edge>
    <edge id=":11449716191_c0" function="crossing" crossingEdges="-318747848#6 318747848#6">
        <lane id=":11449716191_c0_0" index="0" allow="pedestrian" speed="2.78" length="6.40" width="4.00" shape="957.58,756.42 963.95,757.03" outlineShape="957.68,754.42 964.24,755.05 963.76,759.02 957.39,758.41 957.77,754.43 957.82,753.92 955.83,753.73 954.20,755.03 953.94,757.01 955.35,758.71 957.34,758.91 957.39,758.41"/>
    </edge>
    <edge id=":11449716191_w0" function="walkingarea">
        <lane id=":11449716191_w0_0" index="0" allow="pedestrian" speed="2.78" length="3.47" width="4.00" shape="963.71,759.53 965.70,759.73 966.18,754.73 964.19,754.54 964.15,755.04 963.76,759.02"/>
    </edge>
    <edge id=":11449716191_w1" function="walkingarea">
        <lane id=":11449716191_w1_0" index="0" allow="pedestrian" speed="2.78" length="3.51" width="4.00" shape="957.39,758.41 957.77,754.43 957.82,753.92 955.83,753.73 954.20,755.03 953.94,757.01 955.35,758.71 957.34,758.91"/>
    </edge>
    <edge id=":11449716195_0" function="internal">
        <lane id=":11449716195_0_0" index="0" disallow="pedestrian tram rail_urban rail rail_electric rail_fast ship container cable_car subway aircraft wheelchair scooter drone" speed="13.89" length="5.00" shape="965.86,720.63 965.38,725.61"/>
    </edge>
    <edge id=":11449716195_1" function="internal">
        <lane id=":11449716195_1_0" index="0" disallow="pedestrian tram rail_urban rail rail_electric rail_fast ship container cable_car subway aircraft wheelchair scooter drone" speed="13.89" length="5.00" shape="962.19,725.31 962.67,720.33"/>
    </edge>
    <edge id=":11449716195_c0" function="crossing" crossingEdges="-318747848#5 318747848#5">
        <lane id=":11449716195_c0_0" index="0" allow="pedestrian" speed="2.78" length="6.40" width="4.00" shape="960.84,722.66 967.21,723.28" outlineShape="960.93,720.66 967.50,721.30 969.01,725.46 969.44,720.98 967.45,720.79 967.40,721.29 967.02,725.27 960.65,724.65 961.03,720.67 961.08,720.17 959.09,719.98 957.46,721.26 957.17,723.24 958.61,724.96 960.60,725.15 960.65,724.65"/>
    </edge>
    <edge id=":11449716195_w0" function="walkingarea">
        <lane id=":11449716195_w0_0" index="0" allow="pedestrian" speed="2.78" length="3.46" width="4.00" shape="966.97,725.77 968.96,725.96 969.44,720.98 967.45,720.79 967.40,721.29 967.02,725.27"/>
    </edge>
    <edge id=":11449716195_w1" function="walkingarea">
        <lane id=":11449716195_w1_0" index="0" allow="pedestrian" speed="2.78" length="3.51" width="4.00" shape="960.65,724.65 961.03,720.67 961.08,720.17 959.09,719.98 957.46,721.26 957.17,723.24 958.61,724.96 960.60,725.15"/>
    </edge>
    <edge id=":11449716196_w0" function="walkingarea">
        <lane id=":11449716196_w0_0" index="0" allow="pedestrian" speed="2.78" length="3.20" width="6.40" shape="904.53,719.72 901.33,719.73 907.73,719.71 904.53,719.72"/>
    </edge>
    <edge id=":11449716198_0" function="internal">
        <lane id=":11449716198_0_0" index="0" disallow="pedestrian tram rail_urban rail rail_electric rail_fast ship container cable_car subway aircraft wheelchair scooter drone" speed="13.89" length="4.99" shape="875.07,674.62 870.08,674.54"/>
    </edge>
    <edge id=":11449716198_1" function="internal">
        <lane id=":11449716198_1_0" index="0" disallow="pedestrian tram rail_urban rail rail_electric rail_fast ship container cable_car subway aircraft wheelchair scooter drone" speed="13.89" length="4.99" shape="870.13,671.34 875.12,671.42"/>
    </edge>
    <edge id=":11449716198_c0" function="crossing" crossingEdges="318747848#4 -318747848#4">
        <lane id=":11449716198_c0_0" index="0" allow="pedestrian" speed="2.78" length="6.40" width="4.00" shape="872.65,669.78 872.55,676.18" outlineShape="874.65,669.81 874.55,676.21 870.55,676.15 870.65,669.75"/>
    </edge>
    <edge id=":11449716198_w0" function="walkingarea">
        <lane id=":11449716198_w0_0" index="0" allow="pedestrian" speed="2.78" length="3.50" width="4.00" shape="870.05,676.14 870.01,678.14 871.53,679.71 873.53,679.70 875.01,678.22 875.04,676.22 874.55,676.21 870.55,676.15"/>
    </edge>
    <edge id=":11449716198_w1" function="walkingarea">
        <lane id=":11449716198_w1_0" index="0" allow="pedestrian" speed="2.78" length="3.45" width="4.00" shape="870.65,669.75 874.65,669.81 875.14,669.82 875.17,667.82 870.19,667.74 870.16,669.74"/>
    </edge>
    <edge id=":11449716203_0" function="internal">
        <lane id=":11449716203_0_0" index="0" allow="pedestrian delivery bicycle" speed="5.56" length="5.02" shape="821.03,697.48 816.14,696.30"/>
    </edge>
    <edge id=":11449716203_1" function="internal">
        <lane id=":11449716203_1_0" index="0" allow="pedestrian delivery bicycle" speed="5.56" length="5.02" shape="816.89,693.19 821.78,694.37"/>
    </edge>
    <edge id=":11449716203_w0" function="walkingarea">
        <lane id=":11449716203_w0_0" index="0" allow="pedestrian" speed="2.78" length="5.04" width="6.40" shape="820.65,699.03 822.15,692.81 817.27,691.63 815.77,697.86 816.51,698.20 816.72,698.47 816.81,698.78 816.79,699.16 816.66,699.59 818.51,700.35 819.05,699.46 819.39,699.19 819.76,699.02 820.19,698.97"/>
    </edge>
    <edge id=":11449716209_0" function="internal">
        <lane id=":11449716209_0_0" index="0" disallow="pedestrian tram rail_urban rail rail_electric rail_fast ship container cable_car subway aircraft wheelchair scooter drone" speed="13.89" length="5.00" shape="844.20,719.57 844.06,714.57"/>
    </edge>
    <edge id=":11449716209_1" function="internal">
        <lane id=":11449716209_1_0" index="0" disallow="pedestrian tram rail_urban rail rail_electric rail_fast ship container cable_car subway aircraft wheelchair scooter drone" speed="13.89" length="5.00" shape="847.26,714.48 847.40,719.48"/>
    </edge>
    <edge id=":11449716209_c0" function="crossing" crossingEdges="-315658884#0 315658884#0">
        <lane id=":11449716209_c0_0" index="0" allow="pedestrian" speed="2.78" length="6.40" width="4.00" shape="848.93,716.93 842.53,717.11" outlineShape="849.09,718.93 842.49,719.12 842.48,715.11 848.87,714.93 848.99,718.93 849.00,719.44 851.00,719.38 850.86,714.37 848.86,714.43 848.87,714.93"/>
    </edge>
    <edge id=":11449716209_w0" function="walkingarea">
        <lane id=":11449716209_w0_0" index="0" allow="pedestrian" speed="2.78" length="3.49" width="4.00" shape="842.46,714.62 840.46,714.67 839.00,716.22 839.06,718.22 840.60,719.67 842.60,719.61 842.59,719.11 842.48,715.11"/>
    </edge>
    <edge id=":11449716209_w1" function="walkingarea">
        <lane id=":11449716209_w1_0" index="0" allow="pedestrian" speed="2.78" length="3.47" width="4.00" shape="848.87,714.93 848.99,718.93 849.00,719.44 851.00,719.38 850.86,714.37 848.86,714.43"/>
    </edge>
    <edge id=":11459942461_0" function="internal">
        <lane id=":11459942461_0_0" index="0" disallow="tram rail_urban rail rail_electric rail_fast ship container cable_car subway aircraft wheelchair scooter drone" speed="27.78" length="9.40" shape="765.95,507.06 765.80,497.66"/>
        <lane id=":11459942461_0_1" index="1" disallow="tram rail_urban rail rail_electric rail_fast ship container cable_car subway aircraft wheelchair scooter drone" speed="27.78" length="9.40" shape="769.15,507.01 769.00,497.61"/>
    </edge>
    <edge id=":11459942461_2" function="internal">
        <lane id=":11459942461_2_0" index="0" allow="pedestrian delivery bicycle" speed="7.72" length="2.73" shape="769.15,507.01 769.71,504.34"/>
    </edge>
    <edge id=":11459942461_8" function="internal">
        <lane id=":11459942461_8_0" index="0" allow="pedestrian delivery bicycle" speed="7.72" length="10.08" shape="769.71,504.34 771.47,502.36 774.43,501.08 778.60,500.50"/>
    </edge>
    <edge id=":11459942461_3" function="internal">
        <lane id=":11459942461_3_0" index="0" allow="pedestrian delivery bicycle" speed="5.15" length="5.13" shape="778.75,503.70 777.33,503.96 776.33,504.58 775.73,505.56 775.55,506.91"/>
    </edge>
    <edge id=":11459942461_4" function="internal">
        <lane id=":11459942461_4_0" index="0" allow="pedestrian delivery bicycle" speed="7.61" length="13.06" shape="778.75,503.70 774.53,503.49 771.49,502.41 769.65,500.45 769.00,497.61"/>
    </edge>
    <edge id=":11459942461_5" function="internal">
        <lane id=":11459942461_5_0" index="0" allow="pedestrian delivery bicycle" speed="5.01" length="5.04" shape="775.40,497.50 775.62,498.87 776.23,499.83 777.22,500.37 778.60,500.50"/>
    </edge>
    <edge id=":11459942461_6" function="internal">
        <lane id=":11459942461_6_0" index="0" disallow="tram rail_urban rail rail_electric rail_fast ship container cable_car subway aircraft wheelchair scooter drone" speed="27.78" length="9.40" shape="775.40,497.50 775.55,506.91"/>
        <lane id=":11459942461_6_1" index="1" disallow="tram rail_urban rail rail_electric rail_fast ship container cable_car subway aircraft wheelchair scooter drone" speed="27.78" length="9.40" shape="772.20,497.56 772.35,506.96"/>
    </edge>
    <edge id=":11459942461_w0" function="walkingarea">
        <lane id=":11459942461_w0_0" index="0" allow="pedestrian" speed="2.78" length="9.73" width="12.80" shape="764.35,507.08 777.15,506.88 777.33,506.04 777.56,505.74 777.89,505.51 778.31,505.37 778.83,505.30 778.52,498.91 777.69,498.78 777.39,498.59 777.18,498.30 777.05,497.93 777.00,497.48 764.20,497.69"/>
    </edge>
    <edge id=":11459942462_w0" function="walkingarea">
        <lane id=":11459942462_w0_0" index="0" allow="pedestrian" speed="2.78" length="4.32" width="6.40" shape="832.95,503.65 834.18,502.07 829.96,496.41 830.27,502.80 831.34,502.80 831.72,502.88 832.07,503.03 832.46,503.28"/>
    </edge>
    <edge id=":11459942464_0" function="internal">
        <lane id=":11459942464_0_0" index="0" disallow="tram rail_urban rail rail_electric rail_fast ship container cable_car subway aircraft wheelchair scooter drone" speed="27.78" length="5.12" shape="838.70,515.68 843.06,513.13"/>
        <lane id=":11459942464_0_1" index="1" disallow="tram rail_urban rail rail_electric rail_fast ship container cable_car subway aircraft wheelchair scooter drone" speed="27.78" length="5.12" shape="840.27,518.46 844.70,515.88"/>
        <lane id=":11459942464_0_2" index="2" disallow="tram rail_urban rail rail_electric rail_fast ship container cable_car subway aircraft wheelchair scooter drone" speed="27.78" length="5.12" shape="841.85,521.25 846.34,518.63"/>
    </edge>
    <edge id=":11459942464_w0" function="walkingarea">
        <lane id=":11459942464_w0_0" index="0" allow="pedestrian" speed="2.78" length="4.40" width="3.20" shape="847.16,520.00 842.24,511.76 841.45,512.03 841.12,511.99 840.82,511.83 840.56,511.55 840.34,511.15 838.51,511.96 838.76,512.92 838.71,513.34 838.56,513.70 838.29,514.02 837.91,514.29 842.64,522.64"/>
    </edge>
    <edge id=":11459943051_w0" function="walkingarea">
        <lane id=":11459943051_w0_0" index="0" allow="pedestrian" speed="2.78" length="0.21" width="2.00" shape="838.47,489.28 839.27,487.45 838.10,489.07 838.23,489.16 838.28,489.19 838.32,489.21 838.38,489.24"/>
    </edge>
    <edge id=":11459943053_0" function="internal">
        <lane id=":11459943053_0_0" index="0" disallow="tram rail_urban rail rail_electric rail_fast ship container cable_car subway aircraft wheelchair scooter drone" speed="27.78" length="5.16" shape="860.30,502.84 864.73,500.20"/>
        <lane id=":11459943053_0_1" index="1" disallow="tram rail_urban rail rail_electric rail_fast ship container cable_car subway aircraft wheelchair scooter drone" speed="27.78" length="5.16" shape="861.94,505.59 866.37,502.95"/>
        <lane id=":11459943053_0_2" index="2" disallow="tram rail_urban rail rail_electric rail_fast ship container cable_car subway aircraft wheelchair scooter drone" speed="27.78" length="5.16" shape="863.58,508.34 868.01,505.70"/>
    </edge>
    <edge id=":11459943053_w0" function="walkingarea">
        <lane id=":11459943053_w0_0" index="0" allow="pedestrian" speed="2.78" length="4.57" width="3.20" shape="868.83,507.07 863.91,498.83 862.99,499.10 862.48,499.05 861.94,498.89 861.37,498.61 860.77,498.20 859.57,499.80 860.09,500.39 860.15,500.67 860.06,500.94 859.84,501.21 859.48,501.47 864.40,509.71"/>
    </edge>
    <edge id=":11459943054_0" function="internal">
        <lane id=":11459943054_0_0" index="0" disallow="tram rail_urban rail rail_electric rail_fast ship container cable_car subway aircraft wheelchair scooter drone" speed="27.78" length="5.11" shape="879.55,489.72 883.62,486.64"/>
        <lane id=":11459943054_0_1" index="1" disallow="tram rail_urban rail rail_electric rail_fast ship container cable_car subway aircraft wheelchair scooter drone" speed="27.78" length="5.11" shape="881.48,492.28 885.55,489.20"/>
        <lane id=":11459943054_0_2" index="2" disallow="tram rail_urban rail rail_electric rail_fast ship container cable_car subway aircraft wheelchair scooter drone" speed="27.78" length="5.11" shape="883.40,494.83 887.48,491.75"/>
    </edge>
    <edge id=":11459943054_w0" function="walkingarea">
        <lane id=":11459943054_w0_0" index="0" allow="pedestrian" speed="2.78" length="4.52" width="3.20" shape="888.45,493.03 882.66,485.37 881.80,485.73 881.32,485.74 880.80,485.62 880.26,485.39 879.68,485.04 878.55,486.69 879.10,487.26 879.17,487.55 879.11,487.85 878.91,488.15 878.58,488.44 884.37,496.11"/>
    </edge>
    <edge id=":11459943055_w0" function="walkingarea">
        <lane id=":11459943055_w0_0" index="0" allow="pedestrian" speed="2.78" length="2.32" width="2.00" shape="872.13,482.25 873.26,480.61 872.52,480.10 872.25,479.93 871.98,479.77 871.64,479.59 871.18,479.34 870.24,481.11 870.96,481.50 871.21,481.64 871.45,481.79 871.74,481.99"/>
    </edge>
    <edge id=":11459943059_0" function="internal">
        <lane id=":11459943059_0_0" index="0" disallow="pedestrian tram rail_urban rail rail_electric rail_fast ship container cable_car subway aircraft wheelchair scooter drone" speed="13.89" length="5.00" shape="863.78,454.65 859.07,456.32"/>
    </edge>
    <edge id=":11459943059_1" function="internal">
        <lane id=":11459943059_1_0" index="0" disallow="pedestrian tram rail_urban rail rail_electric rail_fast ship container cable_car subway aircraft wheelchair scooter drone" speed="13.89" length="5.00" shape="858.00,453.30 862.72,451.63"/>
    </edge>
    <edge id=":11459943059_c0" function="crossing" crossingEdges="-351672100#1 351672100#1">
        <lane id=":11459943059_c0_0" index="0" allow="pedestrian" speed="2.78" length="6.40" width="4.00" shape="859.83,450.96 861.96,456.99" outlineShape="861.68,450.20 863.88,456.42 860.07,457.66 857.94,451.62 861.71,450.29 862.18,450.12 861.52,448.24 856.80,449.90 857.47,451.79 857.94,451.62"/>
    </edge>
    <edge id=":11459943059_w0" function="walkingarea">
        <lane id=":11459943059_w0_0" index="0" allow="pedestrian" speed="2.78" length="3.50" width="4.00" shape="859.60,457.82 860.27,459.71 862.15,460.63 864.05,460.00 864.98,458.04 864.32,456.16 863.85,456.32 860.07,457.66"/>
    </edge>
    <edge id=":11459943059_w1" function="walkingarea">
        <lane id=":11459943059_w1_0" index="0" allow="pedestrian" speed="2.78" length="3.46" width="4.00" shape="857.94,451.62 861.71,450.29 862.18,450.12 861.52,448.24 856.80,449.90 857.47,451.79"/>
    </edge>
    <edge id=":11459943060_w0" function="walkingarea">
        <lane id=":11459943060_w0_0" index="0" allow="pedestrian" speed="2.78" length="3.20" width="6.40" shape="931.35,409.98 928.59,411.61 934.11,408.35 931.35,409.98"/>
    </edge>
    <edge id=":11459943063_0" function="internal">
        <lane id=":11459943063_0_0" index="0" allow="pedestrian delivery bicycle" speed="5.56" length="5.72" shape="916.94,394.51 916.48,392.89 916.03,391.81 915.37,390.85 914.29,389.54"/>
    </edge>
    <edge id=":11459943063_1" function="internal">
        <lane id=":11459943063_1_0" index="0" allow="pedestrian delivery bicycle" speed="5.56" length="7.14" shape="916.75,387.49 918.09,389.13 918.91,390.34 919.47,391.69 920.04,393.71"/>
    </edge>
    <edge id=":11459943063_w0" function="walkingarea">
        <lane id=":11459943063_w0_0" index="0" allow="pedestrian" speed="2.78" length="5.50" width="6.40" shape="915.39,394.91 921.59,393.32 920.77,390.54 920.35,389.60 919.80,388.73 919.04,387.75 917.98,386.47 913.06,390.56 913.44,391.27 913.44,391.58 913.30,391.85 913.04,392.10 912.65,392.32 913.45,394.15 914.36,393.93 914.72,394.00 915.01,394.18 915.23,394.49"/>
    </edge>
    <edge id=":11459943065_0" function="internal">
        <lane id=":11459943065_0_0" index="0" allow="delivery bicycle" speed="6.06" length="7.08" shape="894.02,377.87 891.73,376.90 889.88,376.54 888.47,376.77 887.51,377.62"/>
    </edge>
    <edge id=":11459943065_1" function="internal">
        <lane id=":11459943065_1_0" index="0" allow="delivery bicycle" speed="7.27" length="12.48" shape="894.02,377.87 890.80,375.75 889.05,373.39 888.77,370.79 889.95,367.95"/>
    </edge>
    <edge id=":11459943065_2" function="internal">
        <lane id=":11459943065_2_0" index="0" allow="delivery bicycle" speed="5.60" length="6.94" shape="892.64,369.69 892.10,371.13 892.40,372.49 893.51,373.79 895.46,375.01"/>
    </edge>
    <edge id=":11459943065_3" function="internal">
        <lane id=":11459943065_3_0" index="0" disallow="pedestrian tram rail_urban rail rail_electric rail_fast ship container cable_car subway aircraft wheelchair scooter drone" speed="13.89" length="9.44" shape="892.64,369.69 887.51,377.62"/>
    </edge>
    <edge id=":11459943065_4" function="internal">
        <lane id=":11459943065_4_0" index="0" disallow="pedestrian tram rail_urban rail rail_electric rail_fast ship container cable_car subway aircraft wheelchair scooter drone" speed="13.89" length="9.44" shape="884.82,375.88 889.95,367.95"/>
    </edge>
    <edge id=":11459943065_5" function="internal">
        <lane id=":11459943065_5_0" index="0" allow="delivery bicycle" speed="7.64" length="2.71" shape="884.82,375.88 886.63,374.06 886.77,374.01"/>
    </edge>
    <edge id=":11459943065_6" function="internal">
        <lane id=":11459943065_6_0" index="0" allow="delivery bicycle" speed="7.64" length="9.08" shape="886.77,374.01 889.01,373.31 891.95,373.63 895.46,375.01"/>
    </edge>
    <edge id=":11459943065_c0" function="crossing" crossingEdges="384030398#1 -384030398#1">
        <lane id=":11459943065_c0_0" index="0" allow="pedestrian" speed="2.78" length="6.40" width="4.00" shape="887.52,368.76 892.89,372.24" outlineShape="888.61,367.08 893.98,370.56 894.07,370.62 893.98,370.56 891.81,373.92 886.44,370.44 888.53,367.03 886.93,366.00 881.80,373.92 883.48,375.01 886.44,370.44"/>
    </edge>
    <edge id=":11459943065_w0" function="walkingarea">
        <lane id=":11459943065_w0_0" index="0" allow="pedestrian" speed="2.78" length="5.42" width="4.00" shape="888.85,378.49 890.53,379.57 893.30,379.30 894.74,376.44 896.18,373.59 895.66,371.65 893.98,370.56 891.81,373.92"/>
    </edge>
    <edge id=":11459943065_w1" function="walkingarea">
        <lane id=":11459943065_w1_0" index="0" allow="pedestrian" speed="2.78" length="6.39" width="4.00" shape="886.44,370.44 888.61,367.08 886.93,366.00 881.80,373.92 883.48,375.01"/>
    </edge>
    <edge id=":11459943069_0" function="internal">
        <lane id=":11459943069_0_0" index="0" disallow="pedestrian tram rail_urban rail rail_electric rail_fast ship container cable_car subway aircraft wheelchair scooter drone" speed="13.89" length="5.00" shape="894.86,434.74 891.37,438.32"/>
    </edge>
    <edge id=":11459943069_1" function="internal">
        <lane id=":11459943069_1_0" index="0" disallow="pedestrian tram rail_urban rail rail_electric rail_fast ship container cable_car subway aircraft wheelchair scooter drone" speed="13.89" length="4.99" shape="889.03,436.12 892.52,432.55"/>
    </edge>
    <edge id=":11459943069_c0" function="crossing" crossingEdges="-351672100#0 351672100#0">
        <lane id=":11459943069_c0_0" index="0" allow="pedestrian" speed="2.78" length="6.40" width="4.00" shape="889.65,433.28 894.32,437.65" outlineShape="891.02,431.82 895.69,436.19 892.96,439.11 888.28,434.74 891.02,431.82 891.35,431.46 889.89,430.09 886.45,433.60 887.82,435.06 888.28,434.74"/>
    </edge>
    <edge id=":11459943069_w0" function="walkingarea">
        <lane id=":11459943069_w0_0" index="0" allow="pedestrian" speed="2.78" length="3.12" width="4.00" shape="892.58,439.37 893.95,440.83 895.36,440.07 896.86,438.74 897.49,437.20 896.03,435.83 895.69,436.19 892.96,439.11"/>
    </edge>
    <edge id=":11459943069_w1" function="walkingarea">
        <lane id=":11459943069_w1_0" index="0" allow="pedestrian" speed="2.78" length="3.46" width="4.00" shape="888.28,434.74 891.02,431.82 891.35,431.46 889.89,430.09 886.45,433.60 887.82,435.06"/>
    </edge>
    <edge id=":11459943070_w0" function="walkingarea">
        <lane id=":11459943070_w0_0" index="0" allow="pedestrian" speed="2.78" length="0.30" width="2.00" shape="900.08,445.24 901.56,443.89 901.36,443.67 899.88,445.01"/>
    </edge>
    <edge id=":11459943071_0" function="internal">
        <lane id=":11459943071_0_0" index="0" disallow="tram rail_urban rail rail_electric rail_fast ship container cable_car subway aircraft wheelchair scooter drone" speed="27.78" length="5.01" shape="914.42,463.37 918.42,460.35"/>